42631258
  -OEChem-09182107372D

 50 52  0     1  0  0  0  0  0999 V2000
    3.7320   -1.2500    0.0000 F   0  0  0  0  0  0  0  0  0  0  0  0
    5.4641   -4.2500    0.0000 F   0  0  0  0  0  0  0  0  0  0  0  0
    4.4641   -0.2500    0.0000 O   0  0  0  0  0  0  0  0  0  0  0  0
    4.5981    1.2500    0.0000 N   0  0  3  0  0  0  0  0  0  0  0  0
    6.9641    0.6160    0.0000 N   0  0  0  0  0  0  0  0  0  0  0  0
    7.9586    0.7206    0.0000 N   0  0  0  0  0  0  0  0  0  0  0  0
    7.3005    2.1987    0.0000 N   0  0  0  0  0  0  0  0  0  0  0  0
    5.4641   -0.2500    0.0000 C   0  0  3  0  0  0  0  0  0  0  0  0
    5.4641    0.7500    0.0000 C   0  0  0  0  0  0  0  0  0  0  0  0
    6.4641   -0.2500    0.0000 C   0  0  0  0  0  0  0  0  0  0  0  0
    5.4641   -1.2500    0.0000 C   0  0  0  0  0  0  0  0  0  0  0  0
    4.5981    2.2500    0.0000 C   0  0  0  0  0  0  0  0  0  0  0  0
    3.7320    0.7500    0.0000 C   0  0  0  0  0  0  0  0  0  0  0  0
    4.5981   -1.7500    0.0000 C   0  0  0  0  0  0  0  0  0  0  0  0
    6.3301   -1.7500    0.0000 C   0  0  0  0  0  0  0  0  0  0  0  0
    3.7320    2.7500    0.0000 C   0  0  0  0  0  0  0  0  0  0  0  0
    2.8660    1.2500    0.0000 C   0  0  0  0  0  0  0  0  0  0  0  0
    4.5981   -2.7500    0.0000 C   0  0  0  0  0  0  0  0  0  0  0  0
    6.3301   -2.7500    0.0000 C   0  0  0  0  0  0  0  0  0  0  0  0
    6.5574    1.5296    0.0000 C   0  0  0  0  0  0  0  0  0  0  0  0
    5.4641   -3.2500    0.0000 C   0  0  0  0  0  0  0  0  0  0  0  0
    2.8660    2.2500    0.0000 C   0  0  0  0  0  0  0  0  0  0  0  0
    3.7320    3.7500    0.0000 C   0  0  0  0  0  0  0  0  0  0  0  0
    8.1665    1.6987    0.0000 C   0  0  0  0  0  0  0  0  0  0  0  0
    2.0000    2.7500    0.0000 C   0  0  0  0  0  0  0  0  0  0  0  0
    2.8660    4.2500    0.0000 C   0  0  0  0  0  0  0  0  0  0  0  0
    2.0000    0.7500    0.0000 C   0  0  0  0  0  0  0  0  0  0  0  0
    2.0000    3.7500    0.0000 C   0  0  0  0  0  0  0  0  0  0  0  0
    6.0747    0.6423    0.0000 H   0  0  0  0  0  0  0  0  0  0  0  0
    5.6762    1.3326    0.0000 H   0  0  0  0  0  0  0  0  0  0  0  0
    6.3564   -0.8606    0.0000 H   0  0  0  0  0  0  0  0  0  0  0  0
    7.0467   -0.4621    0.0000 H   0  0  0  0  0  0  0  0  0  0  0  0
    5.2087    2.1423    0.0000 H   0  0  0  0  0  0  0  0  0  0  0  0
    4.8101    2.8326    0.0000 H   0  0  0  0  0  0  0  0  0  0  0  0
    3.3335    0.2751    0.0000 H   0  0  0  0  0  0  0  0  0  0  0  0
    4.1306    0.2751    0.0000 H   0  0  0  0  0  0  0  0  0  0  0  0
    4.1541    0.2869    0.0000 H   0  0  0  0  0  0  0  0  0  0  0  0
    6.8671   -1.4400    0.0000 H   0  0  0  0  0  0  0  0  0  0  0  0
    2.8660    1.8700    0.0000 H   0  0  0  0  0  0  0  0  0  0  0  0
    4.0611   -3.0600    0.0000 H   0  0  0  0  0  0  0  0  0  0  0  0
    6.8671   -3.0600    0.0000 H   0  0  0  0  0  0  0  0  0  0  0  0
    5.9509    1.6585    0.0000 H   0  0  0  0  0  0  0  0  0  0  0  0
    2.8660    1.6300    0.0000 H   0  0  0  0  0  0  0  0  0  0  0  0
    4.2690    4.0600    0.0000 H   0  0  0  0  0  0  0  0  0  0  0  0
    8.7329    1.9509    0.0000 H   0  0  0  0  0  0  0  0  0  0  0  0
    1.4631    2.4400    0.0000 H   0  0  0  0  0  0  0  0  0  0  0  0
    2.8660    4.8700    0.0000 H   0  0  0  0  0  0  0  0  0  0  0  0
    1.4631    1.0600    0.0000 H   0  0  0  0  0  0  0  0  0  0  0  0
    2.0000    0.1300    0.0000 H   0  0  0  0  0  0  0  0  0  0  0  0
    1.4631    4.0600    0.0000 H   0  0  0  0  0  0  0  0  0  0  0  0
  1 14  1  0  0  0  0
  2 21  1  0  0  0  0
  3  8  1  0  0  0  0
  3 37  1  0  0  0  0
  4  9  1  0  0  0  0
  4 12  1  0  0  0  0
  4 13  1  0  0  0  0
  5  6  1  0  0  0  0
  5 10  1  0  0  0  0
  5 20  1  0  0  0  0
  6 24  2  0  0  0  0
  7 20  2  0  0  0  0
  7 24  1  0  0  0  0
  8  9  1  0  0  0  0
  8 10  1  0  0  0  0
  8 11  1  0  0  0  0
  9 29  1  0  0  0  0
  9 30  1  0  0  0  0
 10 31  1  0  0  0  0
 10 32  1  0  0  0  0
 11 14  2  0  0  0  0
 11 15  1  0  0  0  0
 12 16  1  0  0  0  0
 12 33  1  0  0  0  0
 12 34  1  0  0  0  0
 13 17  1  0  0  0  0
 13 35  1  0  0  0  0
 13 36  1  0  0  0  0
 14 18  1  0  0  0  0
 15 19  2  0  0  0  0
 15 38  1  0  0  0  0
 16 22  2  0  0  0  0
 16 23  1  0  0  0  0
 17 27  2  0  0  0  0
 17 39  1  0  0  0  0
 18 21  2  0  0  0  0
 18 40  1  0  0  0  0
 19 21  1  0  0  0  0
 19 41  1  0  0  0  0
 20 42  1  0  0  0  0
 22 25  1  0  0  0  0
 22 43  1  0  0  0  0
 23 26  2  0  0  0  0
 23 44  1  0  0  0  0
 24 45  1  0  0  0  0
 25 28  2  0  0  0  0
 25 46  1  0  0  0  0
 26 28  1  0  0  0  0
 26 47  1  0  0  0  0
 27 48  1  0  0  0  0
 27 49  1  0  0  0  0
 28 50  1  0  0  0  0
M  END
> <PUBCHEM_COMPOUND_CID>
42631258

> <PUBCHEM_COMPOUND_CANONICALIZED>
1

> <PUBCHEM_CACTVS_COMPLEXITY>
491

> <PUBCHEM_CACTVS_HBOND_ACCEPTOR>
6

> <PUBCHEM_CACTVS_HBOND_DONOR>
1

> <PUBCHEM_CACTVS_ROTATABLE_BOND>
9

> <PUBCHEM_CACTVS_SUBSKEYS>
AAADceB7oYAAAAAAAAAAAAAAAAAAAWAAAAAwYAAAAAAAAAAB0AAAHwAICAAADETBmAw1EIcIEgCiAiBDJACSAAswgIAdyAAIDIiKLiKA2RGEcAhswAOYmAeQwOAOgAAAAAAAAAAAAAAAAAAAAAAAAAAAAA==

> <PUBCHEM_IUPAC_OPENEYE_NAME>
1-[allyl(benzyl)amino]-2-(2,4-difluorophenyl)-3-(1,2,4-triazol-1-yl)propan-2-ol

> <PUBCHEM_IUPAC_CAS_NAME>
2-(2,4-difluorophenyl)-1-[(phenylmethyl)-prop-2-enylamino]-3-(1,2,4-triazol-1-yl)-2-propanol

> <PUBCHEM_IUPAC_NAME_MARKUP>
1-[benzyl(prop-2-enyl)amino]-2-(2,4-difluorophenyl)-3-(1,2,4-triazol-1-yl)propan-2-ol

> <PUBCHEM_IUPAC_NAME>
1-[benzyl(prop-2-enyl)amino]-2-(2,4-difluorophenyl)-3-(1,2,4-triazol-1-yl)propan-2-ol

> <PUBCHEM_IUPAC_SYSTEMATIC_NAME>
2-[2,4-bis(fluoranyl)phenyl]-1-[(phenylmethyl)-prop-2-enyl-amino]-3-(1,2,4-triazol-1-yl)propan-2-ol

> <PUBCHEM_IUPAC_TRADITIONAL_NAME>
1-[allyl(benzyl)amino]-2-(2,4-difluorophenyl)-3-(1,2,4-triazol-1-yl)propan-2-ol

> <PUBCHEM_IUPAC_INCHI>
InChI=1S/C21H22F2N4O/c1-2-10-26(12-17-6-4-3-5-7-17)13-21(28,14-27-16-24-15-25-27)19-9-8-18(22)11-20(19)23/h2-9,11,15-16,28H,1,10,12-14H2

> <PUBCHEM_IUPAC_INCHIKEY>
PNAAGRDZVKSGKR-UHFFFAOYSA-N

> <PUBCHEM_XLOGP3>
2.8

> <PUBCHEM_EXACT_MASS>
384.17616766

> <PUBCHEM_MOLECULAR_FORMULA>
C21H22F2N4O

> <PUBCHEM_MOLECULAR_WEIGHT>
384.4

> <PUBCHEM_OPENEYE_CAN_SMILES>
C=CCN(CC1=CC=CC=C1)CC(CN2C=NC=N2)(C3=C(C=C(C=C3)F)F)O

> <PUBCHEM_OPENEYE_ISO_SMILES>
C=CCN(CC1=CC=CC=C1)CC(CN2C=NC=N2)(C3=C(C=C(C=C3)F)F)O

> <PUBCHEM_CACTVS_TPSA>
54.2

> <PUBCHEM_MONOISOTOPIC_WEIGHT>
384.17616766

> <PUBCHEM_TOTAL_CHARGE>
0

> <PUBCHEM_HEAVY_ATOM_COUNT>
28

> <PUBCHEM_ATOM_DEF_STEREO_COUNT>
0

> <PUBCHEM_ATOM_UDEF_STEREO_COUNT>
1

> <PUBCHEM_BOND_DEF_STEREO_COUNT>
0

> <PUBCHEM_BOND_UDEF_STEREO_COUNT>
0

> <PUBCHEM_ISOTOPIC_ATOM_COUNT>
0

> <PUBCHEM_COMPONENT_COUNT>
1

> <PUBCHEM_CACTVS_TAUTO_COUNT>
-1

> <PUBCHEM_COORDINATE_TYPE>
1
5
255

> <PUBCHEM_BONDANNOTATIONS>
11  14  8
11  15  8
14  18  8
15  19  8
16  22  8
16  23  8
18  21  8
19  21  8
22  25  8
23  26  8
25  28  8
26  28  8
8  3  3
5  20  8
5  6  8
6  24  8
7  20  8
7  24  8

$$$$
42631481
  -OEChem-09182107372D

 50 52  0     1  0  0  0  0  0999 V2000
    5.4641    4.2500    0.0000 Cl  0  0  0  0  0  0  0  0  0  0  0  0
    2.0000    4.2500    0.0000 Cl  0  0  0  0  0  0  0  0  0  0  0  0
    4.5981   -1.2500    0.0000 F   0  0  0  0  0  0  0  0  0  0  0  0
    6.3301   -4.2500    0.0000 F   0  0  0  0  0  0  0  0  0  0  0  0
    5.3301   -0.2500    0.0000 O   0  0  0  0  0  0  0  0  0  0  0  0
    5.4641    1.2500    0.0000 N   0  0  3  0  0  0  0  0  0  0  0  0
    7.8301    0.6160    0.0000 N   0  0  0  0  0  0  0  0  0  0  0  0
    8.8246    0.7206    0.0000 N   0  0  0  0  0  0  0  0  0  0  0  0
    8.1665    2.1987    0.0000 N   0  0  0  0  0  0  0  0  0  0  0  0
    6.3301   -0.2500    0.0000 C   0  0  3  0  0  0  0  0  0  0  0  0
    6.3301    0.7500    0.0000 C   0  0  0  0  0  0  0  0  0  0  0  0
    7.3301   -0.2500    0.0000 C   0  0  0  0  0  0  0  0  0  0  0  0
    6.3301   -1.2500    0.0000 C   0  0  0  0  0  0  0  0  0  0  0  0
    5.4641    2.2500    0.0000 C   0  0  0  0  0  0  0  0  0  0  0  0
    4.5981    0.7500    0.0000 C   0  0  0  0  0  0  0  0  0  0  0  0
    5.4641   -1.7500    0.0000 C   0  0  0  0  0  0  0  0  0  0  0  0
    7.1962   -1.7500    0.0000 C   0  0  0  0  0  0  0  0  0  0  0  0
    4.5981    2.7500    0.0000 C   0  0  0  0  0  0  0  0  0  0  0  0
    3.7320    1.2500    0.0000 C   0  0  0  0  0  0  0  0  0  0  0  0
    5.4641   -2.7500    0.0000 C   0  0  0  0  0  0  0  0  0  0  0  0
    7.1962   -2.7500    0.0000 C   0  0  0  0  0  0  0  0  0  0  0  0
    7.4234    1.5296    0.0000 C   0  0  0  0  0  0  0  0  0  0  0  0
    6.3301   -3.2500    0.0000 C   0  0  0  0  0  0  0  0  0  0  0  0
    4.5981    3.7500    0.0000 C   0  0  0  0  0  0  0  0  0  0  0  0
    3.7320    2.2500    0.0000 C   0  0  0  0  0  0  0  0  0  0  0  0
    9.0326    1.6987    0.0000 C   0  0  0  0  0  0  0  0  0  0  0  0
    3.7320    4.2500    0.0000 C   0  0  0  0  0  0  0  0  0  0  0  0
    2.8660    2.7500    0.0000 C   0  0  0  0  0  0  0  0  0  0  0  0
    2.8660    0.7500    0.0000 C   0  0  0  0  0  0  0  0  0  0  0  0
    2.8660    3.7500    0.0000 C   0  0  0  0  0  0  0  0  0  0  0  0
    6.9407    0.6423    0.0000 H   0  0  0  0  0  0  0  0  0  0  0  0
    6.5422    1.3326    0.0000 H   0  0  0  0  0  0  0  0  0  0  0  0
    7.2225   -0.8606    0.0000 H   0  0  0  0  0  0  0  0  0  0  0  0
    7.9127   -0.4621    0.0000 H   0  0  0  0  0  0  0  0  0  0  0  0
    6.0747    2.1423    0.0000 H   0  0  0  0  0  0  0  0  0  0  0  0
    5.6762    2.8326    0.0000 H   0  0  0  0  0  0  0  0  0  0  0  0
    4.1996    0.2751    0.0000 H   0  0  0  0  0  0  0  0  0  0  0  0
    4.9966    0.2751    0.0000 H   0  0  0  0  0  0  0  0  0  0  0  0
    5.0201    0.2869    0.0000 H   0  0  0  0  0  0  0  0  0  0  0  0
    7.7331   -1.4400    0.0000 H   0  0  0  0  0  0  0  0  0  0  0  0
    3.7320    1.8700    0.0000 H   0  0  0  0  0  0  0  0  0  0  0  0
    4.9272   -3.0600    0.0000 H   0  0  0  0  0  0  0  0  0  0  0  0
    7.7331   -3.0600    0.0000 H   0  0  0  0  0  0  0  0  0  0  0  0
    6.8169    1.6585    0.0000 H   0  0  0  0  0  0  0  0  0  0  0  0
    3.7320    1.6300    0.0000 H   0  0  0  0  0  0  0  0  0  0  0  0
    9.5990    1.9509    0.0000 H   0  0  0  0  0  0  0  0  0  0  0  0
    3.7320    4.8700    0.0000 H   0  0  0  0  0  0  0  0  0  0  0  0
    2.3291    2.4400    0.0000 H   0  0  0  0  0  0  0  0  0  0  0  0
    2.3291    1.0600    0.0000 H   0  0  0  0  0  0  0  0  0  0  0  0
    2.8660    0.1300    0.0000 H   0  0  0  0  0  0  0  0  0  0  0  0
  1 24  1  0  0  0  0
  2 30  1  0  0  0  0
  3 16  1  0  0  0  0
  4 23  1  0  0  0  0
  5 10  1  0  0  0  0
  5 39  1  0  0  0  0
  6 11  1  0  0  0  0
  6 14  1  0  0  0  0
  6 15  1  0  0  0  0
  7  8  1  0  0  0  0
  7 12  1  0  0  0  0
  7 22  1  0  0  0  0
  8 26  2  0  0  0  0
  9 22  2  0  0  0  0
  9 26  1  0  0  0  0
 10 11  1  0  0  0  0
 10 12  1  0  0  0  0
 10 13  1  0  0  0  0
 11 31  1  0  0  0  0
 11 32  1  0  0  0  0
 12 33  1  0  0  0  0
 12 34  1  0  0  0  0
 13 16  2  0  0  0  0
 13 17  1  0  0  0  0
 14 18  1  0  0  0  0
 14 35  1  0  0  0  0
 14 36  1  0  0  0  0
 15 19  1  0  0  0  0
 15 37  1  0  0  0  0
 15 38  1  0  0  0  0
 16 20  1  0  0  0  0
 17 21  2  0  0  0  0
 17 40  1  0  0  0  0
 18 24  2  0  0  0  0
 18 25  1  0  0  0  0
 19 29  2  0  0  0  0
 19 41  1  0  0  0  0
 20 23  2  0  0  0  0
 20 42  1  0  0  0  0
 21 23  1  0  0  0  0
 21 43  1  0  0  0  0
 22 44  1  0  0  0  0
 24 27  1  0  0  0  0
 25 28  2  0  0  0  0
 25 45  1  0  0  0  0
 26 46  1  0  0  0  0
 27 30  2  0  0  0  0
 27 47  1  0  0  0  0
 28 30  1  0  0  0  0
 28 48  1  0  0  0  0
 29 49  1  0  0  0  0
 29 50  1  0  0  0  0
M  END
> <PUBCHEM_COMPOUND_CID>
42631481

> <PUBCHEM_COMPOUND_CANONICALIZED>
1

> <PUBCHEM_CACTVS_COMPLEXITY>
563

> <PUBCHEM_CACTVS_HBOND_ACCEPTOR>
6

> <PUBCHEM_CACTVS_HBOND_DONOR>
1

> <PUBCHEM_CACTVS_ROTATABLE_BOND>
9

> <PUBCHEM_CACTVS_SUBSKEYS>
AAADceB7oYAGAAAAAAAAAAAAAAAAAWAAAAAwYAAAAAAAAAAB0AAAHwIICAAADEbBmCw1EIcIEgCiAiBDJACSAAswhYAdyAAIDoiKLiKB2xGEcAhswAOYmAeQwOAOhAAAAACBAAAIAAAAAQIAAAAAAAAAAA==

> <PUBCHEM_IUPAC_OPENEYE_NAME>
1-[allyl-[(2,4-dichlorophenyl)methyl]amino]-2-(2,4-difluorophenyl)-3-(1,2,4-triazol-1-yl)propan-2-ol

> <PUBCHEM_IUPAC_CAS_NAME>
1-[(2,4-dichlorophenyl)methyl-prop-2-enylamino]-2-(2,4-difluorophenyl)-3-(1,2,4-triazol-1-yl)-2-propanol

> <PUBCHEM_IUPAC_NAME_MARKUP>
1-[(2,4-dichlorophenyl)methyl-prop-2-enylamino]-2-(2,4-difluorophenyl)-3-(1,2,4-triazol-1-yl)propan-2-ol

> <PUBCHEM_IUPAC_NAME>
1-[(2,4-dichlorophenyl)methyl-prop-2-enylamino]-2-(2,4-difluorophenyl)-3-(1,2,4-triazol-1-yl)propan-2-ol

> <PUBCHEM_IUPAC_SYSTEMATIC_NAME>
2-[2,4-bis(fluoranyl)phenyl]-1-[(2,4-dichlorophenyl)methyl-prop-2-enyl-amino]-3-(1,2,4-triazol-1-yl)propan-2-ol

> <PUBCHEM_IUPAC_TRADITIONAL_NAME>
1-[allyl-(2,4-dichlorobenzyl)amino]-2-(2,4-difluorophenyl)-3-(1,2,4-triazol-1-yl)propan-2-ol

> <PUBCHEM_IUPAC_INCHI>
InChI=1S/C21H20Cl2F2N4O/c1-2-7-28(10-15-3-4-16(22)8-19(15)23)11-21(30,12-29-14-26-13-27-29)18-6-5-17(24)9-20(18)25/h2-6,8-9,13-14,30H,1,7,10-12H2

> <PUBCHEM_IUPAC_INCHIKEY>
JGEFHHOYUUJESV-UHFFFAOYSA-N

> <PUBCHEM_XLOGP3_AA>
4.2

> <PUBCHEM_EXACT_MASS>
452.0982230

> <PUBCHEM_MOLECULAR_FORMULA>
C21H20Cl2F2N4O

> <PUBCHEM_MOLECULAR_WEIGHT>
453.3

> <PUBCHEM_OPENEYE_CAN_SMILES>
C=CCN(CC1=C(C=C(C=C1)Cl)Cl)CC(CN2C=NC=N2)(C3=C(C=C(C=C3)F)F)O

> <PUBCHEM_OPENEYE_ISO_SMILES>
C=CCN(CC1=C(C=C(C=C1)Cl)Cl)CC(CN2C=NC=N2)(C3=C(C=C(C=C3)F)F)O

> <PUBCHEM_CACTVS_TPSA>
54.2

> <PUBCHEM_MONOISOTOPIC_WEIGHT>
452.0982230

> <PUBCHEM_TOTAL_CHARGE>
0

> <PUBCHEM_HEAVY_ATOM_COUNT>
30

> <PUBCHEM_ATOM_DEF_STEREO_COUNT>
0

> <PUBCHEM_ATOM_UDEF_STEREO_COUNT>
1

> <PUBCHEM_BOND_DEF_STEREO_COUNT>
0

> <PUBCHEM_BOND_UDEF_STEREO_COUNT>
0

> <PUBCHEM_ISOTOPIC_ATOM_COUNT>
0

> <PUBCHEM_COMPONENT_COUNT>
1

> <PUBCHEM_CACTVS_TAUTO_COUNT>
-1

> <PUBCHEM_COORDINATE_TYPE>
1
5
255

> <PUBCHEM_BONDANNOTATIONS>
13  16  8
13  17  8
16  20  8
17  21  8
18  24  8
18  25  8
20  23  8
21  23  8
24  27  8
25  28  8
27  30  8
28  30  8
10  5  3
7  22  8
7  8  8
8  26  8
9  22  8
9  26  8

$$$$
42631375
  -OEChem-09182107372D

 53 55  0     1  0  0  0  0  0999 V2000
    4.5981   -1.2500    0.0000 F   0  0  0  0  0  0  0  0  0  0  0  0
    6.3301   -4.2500    0.0000 F   0  0  0  0  0  0  0  0  0  0  0  0
    5.3301   -0.2500    0.0000 O   0  0  0  0  0  0  0  0  0  0  0  0
    5.4641    1.2500    0.0000 N   0  0  3  0  0  0  0  0  0  0  0  0
    7.8301    0.6160    0.0000 N   0  0  0  0  0  0  0  0  0  0  0  0
    8.8246    0.7206    0.0000 N   0  0  0  0  0  0  0  0  0  0  0  0
    8.1665    2.1987    0.0000 N   0  0  0  0  0  0  0  0  0  0  0  0
    6.3301   -0.2500    0.0000 C   0  0  3  0  0  0  0  0  0  0  0  0
    6.3301    0.7500    0.0000 C   0  0  0  0  0  0  0  0  0  0  0  0
    7.3301   -0.2500    0.0000 C   0  0  0  0  0  0  0  0  0  0  0  0
    6.3301   -1.2500    0.0000 C   0  0  0  0  0  0  0  0  0  0  0  0
    5.4641    2.2500    0.0000 C   0  0  0  0  0  0  0  0  0  0  0  0
    4.5981    0.7500    0.0000 C   0  0  0  0  0  0  0  0  0  0  0  0
    5.4641   -1.7500    0.0000 C   0  0  0  0  0  0  0  0  0  0  0  0
    7.1962   -1.7500    0.0000 C   0  0  0  0  0  0  0  0  0  0  0  0
    4.5981    2.7500    0.0000 C   0  0  0  0  0  0  0  0  0  0  0  0
    3.7320    1.2500    0.0000 C   0  0  0  0  0  0  0  0  0  0  0  0
    5.4641   -2.7500    0.0000 C   0  0  0  0  0  0  0  0  0  0  0  0
    7.1962   -2.7500    0.0000 C   0  0  0  0  0  0  0  0  0  0  0  0
    7.4234    1.5296    0.0000 C   0  0  0  0  0  0  0  0  0  0  0  0
    4.5981    3.7500    0.0000 C   0  0  0  0  0  0  0  0  0  0  0  0
    3.7320    2.2500    0.0000 C   0  0  0  0  0  0  0  0  0  0  0  0
    6.3301   -3.2500    0.0000 C   0  0  0  0  0  0  0  0  0  0  0  0
    3.7320    4.2500    0.0000 C   0  0  0  0  0  0  0  0  0  0  0  0
    2.8660    2.7500    0.0000 C   0  0  0  0  0  0  0  0  0  0  0  0
    2.8660    3.7500    0.0000 C   0  0  0  0  0  0  0  0  0  0  0  0
    9.0326    1.6987    0.0000 C   0  0  0  0  0  0  0  0  0  0  0  0
    2.8660    0.7500    0.0000 C   0  0  0  0  0  0  0  0  0  0  0  0
    2.0000    4.2500    0.0000 C   0  0  0  0  0  0  0  0  0  0  0  0
    6.9407    0.6423    0.0000 H   0  0  0  0  0  0  0  0  0  0  0  0
    6.5422    1.3326    0.0000 H   0  0  0  0  0  0  0  0  0  0  0  0
    7.2225   -0.8606    0.0000 H   0  0  0  0  0  0  0  0  0  0  0  0
    7.9127   -0.4621    0.0000 H   0  0  0  0  0  0  0  0  0  0  0  0
    6.0747    2.1423    0.0000 H   0  0  0  0  0  0  0  0  0  0  0  0
    5.6762    2.8326    0.0000 H   0  0  0  0  0  0  0  0  0  0  0  0
    4.1996    0.2751    0.0000 H   0  0  0  0  0  0  0  0  0  0  0  0
    4.9966    0.2751    0.0000 H   0  0  0  0  0  0  0  0  0  0  0  0
    5.0201    0.2869    0.0000 H   0  0  0  0  0  0  0  0  0  0  0  0
    7.7331   -1.4400    0.0000 H   0  0  0  0  0  0  0  0  0  0  0  0
    3.7320    1.8700    0.0000 H   0  0  0  0  0  0  0  0  0  0  0  0
    4.9272   -3.0600    0.0000 H   0  0  0  0  0  0  0  0  0  0  0  0
    7.7331   -3.0600    0.0000 H   0  0  0  0  0  0  0  0  0  0  0  0
    6.8169    1.6585    0.0000 H   0  0  0  0  0  0  0  0  0  0  0  0
    5.1350    4.0600    0.0000 H   0  0  0  0  0  0  0  0  0  0  0  0
    3.7320    1.6300    0.0000 H   0  0  0  0  0  0  0  0  0  0  0  0
    3.7320    4.8700    0.0000 H   0  0  0  0  0  0  0  0  0  0  0  0
    2.3291    2.4400    0.0000 H   0  0  0  0  0  0  0  0  0  0  0  0
    9.5990    1.9509    0.0000 H   0  0  0  0  0  0  0  0  0  0  0  0
    2.3291    1.0600    0.0000 H   0  0  0  0  0  0  0  0  0  0  0  0
    2.8660    0.1300    0.0000 H   0  0  0  0  0  0  0  0  0  0  0  0
    2.3100    4.7869    0.0000 H   0  0  0  0  0  0  0  0  0  0  0  0
    1.4631    4.5600    0.0000 H   0  0  0  0  0  0  0  0  0  0  0  0
    1.6900    3.7131    0.0000 H   0  0  0  0  0  0  0  0  0  0  0  0
  1 14  1  0  0  0  0
  2 23  1  0  0  0  0
  3  8  1  0  0  0  0
  3 38  1  0  0  0  0
  4  9  1  0  0  0  0
  4 12  1  0  0  0  0
  4 13  1  0  0  0  0
  5  6  1  0  0  0  0
  5 10  1  0  0  0  0
  5 20  1  0  0  0  0
  6 27  2  0  0  0  0
  7 20  2  0  0  0  0
  7 27  1  0  0  0  0
  8  9  1  0  0  0  0
  8 10  1  0  0  0  0
  8 11  1  0  0  0  0
  9 30  1  0  0  0  0
  9 31  1  0  0  0  0
 10 32  1  0  0  0  0
 10 33  1  0  0  0  0
 11 14  2  0  0  0  0
 11 15  1  0  0  0  0
 12 16  1  0  0  0  0
 12 34  1  0  0  0  0
 12 35  1  0  0  0  0
 13 17  1  0  0  0  0
 13 36  1  0  0  0  0
 13 37  1  0  0  0  0
 14 18  1  0  0  0  0
 15 19  2  0  0  0  0
 15 39  1  0  0  0  0
 16 21  2  0  0  0  0
 16 22  1  0  0  0  0
 17 28  2  0  0  0  0
 17 40  1  0  0  0  0
 18 23  2  0  0  0  0
 18 41  1  0  0  0  0
 19 23  1  0  0  0  0
 19 42  1  0  0  0  0
 20 43  1  0  0  0  0
 21 24  1  0  0  0  0
 21 44  1  0  0  0  0
 22 25  2  0  0  0  0
 22 45  1  0  0  0  0
 24 26  2  0  0  0  0
 24 46  1  0  0  0  0
 25 26  1  0  0  0  0
 25 47  1  0  0  0  0
 26 29  1  0  0  0  0
 27 48  1  0  0  0  0
 28 49  1  0  0  0  0
 28 50  1  0  0  0  0
 29 51  1  0  0  0  0
 29 52  1  0  0  0  0
 29 53  1  0  0  0  0
M  END
> <PUBCHEM_COMPOUND_CID>
42631375

> <PUBCHEM_COMPOUND_CANONICALIZED>
1

> <PUBCHEM_CACTVS_COMPLEXITY>
517

> <PUBCHEM_CACTVS_HBOND_ACCEPTOR>
6

> <PUBCHEM_CACTVS_HBOND_DONOR>
1

> <PUBCHEM_CACTVS_ROTATABLE_BOND>
9

> <PUBCHEM_CACTVS_SUBSKEYS>
AAADceB7oYAAAAAAAAAAAAAAAAAAAWAAAAAwYAAAAAAAAAAB0AAAHwAICAAADETBmAw3EIcIEgCiAiBDJACSAAswgIAdyAAIDIiKLiKA2RGEcAhswAOYmAeQwOAOwAAAAAAAAACAAAAAAAAAAAAAAAAAAA==

> <PUBCHEM_IUPAC_OPENEYE_NAME>
1-[allyl(p-tolylmethyl)amino]-2-(2,4-difluorophenyl)-3-(1,2,4-triazol-1-yl)propan-2-ol

> <PUBCHEM_IUPAC_CAS_NAME>
2-(2,4-difluorophenyl)-1-[(4-methylphenyl)methyl-prop-2-enylamino]-3-(1,2,4-triazol-1-yl)-2-propanol

> <PUBCHEM_IUPAC_NAME_MARKUP>
2-(2,4-difluorophenyl)-1-[(4-methylphenyl)methyl-prop-2-enylamino]-3-(1,2,4-triazol-1-yl)propan-2-ol

> <PUBCHEM_IUPAC_NAME>
2-(2,4-difluorophenyl)-1-[(4-methylphenyl)methyl-prop-2-enylamino]-3-(1,2,4-triazol-1-yl)propan-2-ol

> <PUBCHEM_IUPAC_SYSTEMATIC_NAME>
2-[2,4-bis(fluoranyl)phenyl]-1-[(4-methylphenyl)methyl-prop-2-enyl-amino]-3-(1,2,4-triazol-1-yl)propan-2-ol

> <PUBCHEM_IUPAC_TRADITIONAL_NAME>
1-[allyl-(4-methylbenzyl)amino]-2-(2,4-difluorophenyl)-3-(1,2,4-triazol-1-yl)propan-2-ol

> <PUBCHEM_IUPAC_INCHI>
InChI=1S/C22H24F2N4O/c1-3-10-27(12-18-6-4-17(2)5-7-18)13-22(29,14-28-16-25-15-26-28)20-9-8-19(23)11-21(20)24/h3-9,11,15-16,29H,1,10,12-14H2,2H3

> <PUBCHEM_IUPAC_INCHIKEY>
RXDSKJGQFCOEGP-UHFFFAOYSA-N

> <PUBCHEM_XLOGP3_AA>
3.3

> <PUBCHEM_EXACT_MASS>
398.19181773

> <PUBCHEM_MOLECULAR_FORMULA>
C22H24F2N4O

> <PUBCHEM_MOLECULAR_WEIGHT>
398.4

> <PUBCHEM_OPENEYE_CAN_SMILES>
CC1=CC=C(C=C1)CN(CC=C)CC(CN2C=NC=N2)(C3=C(C=C(C=C3)F)F)O

> <PUBCHEM_OPENEYE_ISO_SMILES>
CC1=CC=C(C=C1)CN(CC=C)CC(CN2C=NC=N2)(C3=C(C=C(C=C3)F)F)O

> <PUBCHEM_CACTVS_TPSA>
54.2

> <PUBCHEM_MONOISOTOPIC_WEIGHT>
398.19181773

> <PUBCHEM_TOTAL_CHARGE>
0

> <PUBCHEM_HEAVY_ATOM_COUNT>
29

> <PUBCHEM_ATOM_DEF_STEREO_COUNT>
0

> <PUBCHEM_ATOM_UDEF_STEREO_COUNT>
1

> <PUBCHEM_BOND_DEF_STEREO_COUNT>
0

> <PUBCHEM_BOND_UDEF_STEREO_COUNT>
0

> <PUBCHEM_ISOTOPIC_ATOM_COUNT>
0

> <PUBCHEM_COMPONENT_COUNT>
1

> <PUBCHEM_CACTVS_TAUTO_COUNT>
-1

> <PUBCHEM_COORDINATE_TYPE>
1
5
255

> <PUBCHEM_BONDANNOTATIONS>
11  14  8
11  15  8
14  18  8
15  19  8
16  21  8
16  22  8
18  23  8
19  23  8
21  24  8
22  25  8
24  26  8
25  26  8
8  3  3
5  20  8
5  6  8
6  27  8
7  20  8
7  27  8

$$$$
42631479
  -OEChem-09182107372D

 52 54  0     1  0  0  0  0  0999 V2000
    5.4641   -1.7500    0.0000 F   0  0  0  0  0  0  0  0  0  0  0  0
    7.1962   -4.7500    0.0000 F   0  0  0  0  0  0  0  0  0  0  0  0
    6.1962   -0.7500    0.0000 O   0  0  0  0  0  0  0  0  0  0  0  0
    2.8660    4.7500    0.0000 O   0  5  0  0  0  0  0  0  0  0  0  0
    2.0000    3.2500    0.0000 O   0  0  0  0  0  0  0  0  0  0  0  0
    6.3301    0.7500    0.0000 N   0  0  3  0  0  0  0  0  0  0  0  0
    8.6962    0.1160    0.0000 N   0  0  0  0  0  0  0  0  0  0  0  0
    9.6907    0.2206    0.0000 N   0  0  0  0  0  0  0  0  0  0  0  0
    9.0326    1.6987    0.0000 N   0  0  0  0  0  0  0  0  0  0  0  0
    2.8660    3.7500    0.0000 N   0  3  0  0  0  0  0  0  0  0  0  0
    7.1962   -0.7500    0.0000 C   0  0  3  0  0  0  0  0  0  0  0  0
    7.1962    0.2500    0.0000 C   0  0  0  0  0  0  0  0  0  0  0  0
    8.1962   -0.7500    0.0000 C   0  0  0  0  0  0  0  0  0  0  0  0
    7.1962   -1.7500    0.0000 C   0  0  0  0  0  0  0  0  0  0  0  0
    6.3301    1.7500    0.0000 C   0  0  0  0  0  0  0  0  0  0  0  0
    5.4641    0.2500    0.0000 C   0  0  0  0  0  0  0  0  0  0  0  0
    6.3301   -2.2500    0.0000 C   0  0  0  0  0  0  0  0  0  0  0  0
    8.0622   -2.2500    0.0000 C   0  0  0  0  0  0  0  0  0  0  0  0
    5.4641    2.2500    0.0000 C   0  0  0  0  0  0  0  0  0  0  0  0
    4.5981    0.7500    0.0000 C   0  0  0  0  0  0  0  0  0  0  0  0
    6.3301   -3.2500    0.0000 C   0  0  0  0  0  0  0  0  0  0  0  0
    8.0622   -3.2500    0.0000 C   0  0  0  0  0  0  0  0  0  0  0  0
    8.2894    1.0296    0.0000 C   0  0  0  0  0  0  0  0  0  0  0  0
    4.5981    1.7500    0.0000 C   0  0  0  0  0  0  0  0  0  0  0  0
    5.4641    3.2500    0.0000 C   0  0  0  0  0  0  0  0  0  0  0  0
    7.1962   -3.7500    0.0000 C   0  0  0  0  0  0  0  0  0  0  0  0
    3.7320    2.2500    0.0000 C   0  0  0  0  0  0  0  0  0  0  0  0
    4.5981    3.7500    0.0000 C   0  0  0  0  0  0  0  0  0  0  0  0
    9.8986    1.1987    0.0000 C   0  0  0  0  0  0  0  0  0  0  0  0
    3.7320    3.2500    0.0000 C   0  0  0  0  0  0  0  0  0  0  0  0
    3.7320    0.2500    0.0000 C   0  0  0  0  0  0  0  0  0  0  0  0
    7.8067    0.1423    0.0000 H   0  0  0  0  0  0  0  0  0  0  0  0
    7.4082    0.8326    0.0000 H   0  0  0  0  0  0  0  0  0  0  0  0
    8.0885   -1.3606    0.0000 H   0  0  0  0  0  0  0  0  0  0  0  0
    8.7788   -0.9621    0.0000 H   0  0  0  0  0  0  0  0  0  0  0  0
    6.9407    1.6423    0.0000 H   0  0  0  0  0  0  0  0  0  0  0  0
    6.5422    2.3326    0.0000 H   0  0  0  0  0  0  0  0  0  0  0  0
    5.0656   -0.2249    0.0000 H   0  0  0  0  0  0  0  0  0  0  0  0
    5.8626   -0.2249    0.0000 H   0  0  0  0  0  0  0  0  0  0  0  0
    5.8862   -0.2131    0.0000 H   0  0  0  0  0  0  0  0  0  0  0  0
    8.5991   -1.9400    0.0000 H   0  0  0  0  0  0  0  0  0  0  0  0
    4.5981    1.3700    0.0000 H   0  0  0  0  0  0  0  0  0  0  0  0
    5.7932   -3.5600    0.0000 H   0  0  0  0  0  0  0  0  0  0  0  0
    8.5991   -3.5600    0.0000 H   0  0  0  0  0  0  0  0  0  0  0  0
    7.6830    1.1585    0.0000 H   0  0  0  0  0  0  0  0  0  0  0  0
    4.5981    1.1300    0.0000 H   0  0  0  0  0  0  0  0  0  0  0  0
    6.0010    3.5600    0.0000 H   0  0  0  0  0  0  0  0  0  0  0  0
    3.1951    1.9400    0.0000 H   0  0  0  0  0  0  0  0  0  0  0  0
    4.5981    4.3700    0.0000 H   0  0  0  0  0  0  0  0  0  0  0  0
   10.4650    1.4509    0.0000 H   0  0  0  0  0  0  0  0  0  0  0  0
    3.1951    0.5600    0.0000 H   0  0  0  0  0  0  0  0  0  0  0  0
    3.7320   -0.3700    0.0000 H   0  0  0  0  0  0  0  0  0  0  0  0
  1 17  1  0  0  0  0
  2 26  1  0  0  0  0
  3 11  1  0  0  0  0
  3 40  1  0  0  0  0
  4 10  1  0  0  0  0
  5 10  2  0  0  0  0
  6 12  1  0  0  0  0
  6 15  1  0  0  0  0
  6 16  1  0  0  0  0
  7  8  1  0  0  0  0
  7 13  1  0  0  0  0
  7 23  1  0  0  0  0
  8 29  2  0  0  0  0
  9 23  2  0  0  0  0
  9 29  1  0  0  0  0
 10 30  1  0  0  0  0
 11 12  1  0  0  0  0
 11 13  1  0  0  0  0
 11 14  1  0  0  0  0
 12 32  1  0  0  0  0
 12 33  1  0  0  0  0
 13 34  1  0  0  0  0
 13 35  1  0  0  0  0
 14 17  2  0  0  0  0
 14 18  1  0  0  0  0
 15 19  1  0  0  0  0
 15 36  1  0  0  0  0
 15 37  1  0  0  0  0
 16 20  1  0  0  0  0
 16 38  1  0  0  0  0
 16 39  1  0  0  0  0
 17 21  1  0  0  0  0
 18 22  2  0  0  0  0
 18 41  1  0  0  0  0
 19 24  2  0  0  0  0
 19 25  1  0  0  0  0
 20 31  2  0  0  0  0
 20 42  1  0  0  0  0
 21 26  2  0  0  0  0
 21 43  1  0  0  0  0
 22 26  1  0  0  0  0
 22 44  1  0  0  0  0
 23 45  1  0  0  0  0
 24 27  1  0  0  0  0
 24 46  1  0  0  0  0
 25 28  2  0  0  0  0
 25 47  1  0  0  0  0
 27 30  2  0  0  0  0
 27 48  1  0  0  0  0
 28 30  1  0  0  0  0
 28 49  1  0  0  0  0
 29 50  1  0  0  0  0
 31 51  1  0  0  0  0
 31 52  1  0  0  0  0
M  CHG  2   4  -1  10   1
M  END
> <PUBCHEM_COMPOUND_CID>
42631479

> <PUBCHEM_COMPOUND_CANONICALIZED>
1

> <PUBCHEM_CACTVS_COMPLEXITY>
602

> <PUBCHEM_CACTVS_HBOND_ACCEPTOR>
8

> <PUBCHEM_CACTVS_HBOND_DONOR>
1

> <PUBCHEM_CACTVS_ROTATABLE_BOND>
9

> <PUBCHEM_CACTVS_SUBSKEYS>
AAADceB7sYAAAAAAAAAAAAAAAAAAAWAAAAAwYAAAAAAAAAAB0AAAHwAMCAAADEzBmAw10IcYUgCjAiRDZwCSAAswgoA9yAAIbIqKLiKA2ZGEcAhswAOY2AeQwOAOiAAAAAAAAAAQAAAAAAAAAAAAAAAAAA==

> <PUBCHEM_IUPAC_OPENEYE_NAME>
1-[allyl-[(4-nitrophenyl)methyl]amino]-2-(2,4-difluorophenyl)-3-(1,2,4-triazol-1-yl)propan-2-ol

> <PUBCHEM_IUPAC_CAS_NAME>
2-(2,4-difluorophenyl)-1-[(4-nitrophenyl)methyl-prop-2-enylamino]-3-(1,2,4-triazol-1-yl)-2-propanol

> <PUBCHEM_IUPAC_NAME_MARKUP>
2-(2,4-difluorophenyl)-1-[(4-nitrophenyl)methyl-prop-2-enylamino]-3-(1,2,4-triazol-1-yl)propan-2-ol

> <PUBCHEM_IUPAC_NAME>
2-(2,4-difluorophenyl)-1-[(4-nitrophenyl)methyl-prop-2-enylamino]-3-(1,2,4-triazol-1-yl)propan-2-ol

> <PUBCHEM_IUPAC_SYSTEMATIC_NAME>
2-[2,4-bis(fluoranyl)phenyl]-1-[(4-nitrophenyl)methyl-prop-2-enyl-amino]-3-(1,2,4-triazol-1-yl)propan-2-ol

> <PUBCHEM_IUPAC_TRADITIONAL_NAME>
1-[allyl-(4-nitrobenzyl)amino]-2-(2,4-difluorophenyl)-3-(1,2,4-triazol-1-yl)propan-2-ol

> <PUBCHEM_IUPAC_INCHI>
InChI=1S/C21H21F2N5O3/c1-2-9-26(11-16-3-6-18(7-4-16)28(30)31)12-21(29,13-27-15-24-14-25-27)19-8-5-17(22)10-20(19)23/h2-8,10,14-15,29H,1,9,11-13H2

> <PUBCHEM_IUPAC_INCHIKEY>
FZMWGFNRTRITGY-UHFFFAOYSA-N

> <PUBCHEM_XLOGP3_AA>
2.8

> <PUBCHEM_EXACT_MASS>
429.16124587

> <PUBCHEM_MOLECULAR_FORMULA>
C21H21F2N5O3

> <PUBCHEM_MOLECULAR_WEIGHT>
429.4

> <PUBCHEM_OPENEYE_CAN_SMILES>
C=CCN(CC1=CC=C(C=C1)[N+](=O)[O-])CC(CN2C=NC=N2)(C3=C(C=C(C=C3)F)F)O

> <PUBCHEM_OPENEYE_ISO_SMILES>
C=CCN(CC1=CC=C(C=C1)[N+](=O)[O-])CC(CN2C=NC=N2)(C3=C(C=C(C=C3)F)F)O

> <PUBCHEM_CACTVS_TPSA>
100

> <PUBCHEM_MONOISOTOPIC_WEIGHT>
429.16124587

> <PUBCHEM_TOTAL_CHARGE>
0

> <PUBCHEM_HEAVY_ATOM_COUNT>
31

> <PUBCHEM_ATOM_DEF_STEREO_COUNT>
0

> <PUBCHEM_ATOM_UDEF_STEREO_COUNT>
1

> <PUBCHEM_BOND_DEF_STEREO_COUNT>
0

> <PUBCHEM_BOND_UDEF_STEREO_COUNT>
0

> <PUBCHEM_ISOTOPIC_ATOM_COUNT>
0

> <PUBCHEM_COMPONENT_COUNT>
1

> <PUBCHEM_CACTVS_TAUTO_COUNT>
-1

> <PUBCHEM_COORDINATE_TYPE>
1
5
255

> <PUBCHEM_BONDANNOTATIONS>
14  17  8
14  18  8
17  21  8
18  22  8
19  24  8
19  25  8
21  26  8
22  26  8
24  27  8
25  28  8
27  30  8
28  30  8
11  3  3
7  23  8
7  8  8
8  29  8
9  23  8
9  29  8

$$$$
42631261
  -OEChem-09182107372D

 50 52  0     1  0  0  0  0  0999 V2000
    4.5981   -1.2500    0.0000 F   0  0  0  0  0  0  0  0  0  0  0  0
    6.3301   -4.2500    0.0000 F   0  0  0  0  0  0  0  0  0  0  0  0
    2.0000    4.2500    0.0000 F   0  0  0  0  0  0  0  0  0  0  0  0
    5.3301   -0.2500    0.0000 O   0  0  0  0  0  0  0  0  0  0  0  0
    5.4641    1.2500    0.0000 N   0  0  3  0  0  0  0  0  0  0  0  0
    7.8301    0.6160    0.0000 N   0  0  0  0  0  0  0  0  0  0  0  0
    8.8246    0.7206    0.0000 N   0  0  0  0  0  0  0  0  0  0  0  0
    8.1665    2.1987    0.0000 N   0  0  0  0  0  0  0  0  0  0  0  0
    6.3301   -0.2500    0.0000 C   0  0  3  0  0  0  0  0  0  0  0  0
    6.3301    0.7500    0.0000 C   0  0  0  0  0  0  0  0  0  0  0  0
    7.3301   -0.2500    0.0000 C   0  0  0  0  0  0  0  0  0  0  0  0
    6.3301   -1.2500    0.0000 C   0  0  0  0  0  0  0  0  0  0  0  0
    5.4641    2.2500    0.0000 C   0  0  0  0  0  0  0  0  0  0  0  0
    4.5981    0.7500    0.0000 C   0  0  0  0  0  0  0  0  0  0  0  0
    5.4641   -1.7500    0.0000 C   0  0  0  0  0  0  0  0  0  0  0  0
    7.1962   -1.7500    0.0000 C   0  0  0  0  0  0  0  0  0  0  0  0
    4.5981    2.7500    0.0000 C   0  0  0  0  0  0  0  0  0  0  0  0
    3.7320    1.2500    0.0000 C   0  0  0  0  0  0  0  0  0  0  0  0
    5.4641   -2.7500    0.0000 C   0  0  0  0  0  0  0  0  0  0  0  0
    7.1962   -2.7500    0.0000 C   0  0  0  0  0  0  0  0  0  0  0  0
    7.4234    1.5296    0.0000 C   0  0  0  0  0  0  0  0  0  0  0  0
    6.3301   -3.2500    0.0000 C   0  0  0  0  0  0  0  0  0  0  0  0
    3.7320    2.2500    0.0000 C   0  0  0  0  0  0  0  0  0  0  0  0
    4.5981    3.7500    0.0000 C   0  0  0  0  0  0  0  0  0  0  0  0
    9.0326    1.6987    0.0000 C   0  0  0  0  0  0  0  0  0  0  0  0
    2.8660    2.7500    0.0000 C   0  0  0  0  0  0  0  0  0  0  0  0
    3.7320    4.2500    0.0000 C   0  0  0  0  0  0  0  0  0  0  0  0
    2.8660    0.7500    0.0000 C   0  0  0  0  0  0  0  0  0  0  0  0
    2.8660    3.7500    0.0000 C   0  0  0  0  0  0  0  0  0  0  0  0
    6.9407    0.6423    0.0000 H   0  0  0  0  0  0  0  0  0  0  0  0
    6.5422    1.3326    0.0000 H   0  0  0  0  0  0  0  0  0  0  0  0
    7.2225   -0.8606    0.0000 H   0  0  0  0  0  0  0  0  0  0  0  0
    7.9127   -0.4621    0.0000 H   0  0  0  0  0  0  0  0  0  0  0  0
    6.0747    2.1423    0.0000 H   0  0  0  0  0  0  0  0  0  0  0  0
    5.6762    2.8326    0.0000 H   0  0  0  0  0  0  0  0  0  0  0  0
    4.1996    0.2751    0.0000 H   0  0  0  0  0  0  0  0  0  0  0  0
    4.9966    0.2751    0.0000 H   0  0  0  0  0  0  0  0  0  0  0  0
    5.0201    0.2869    0.0000 H   0  0  0  0  0  0  0  0  0  0  0  0
    7.7331   -1.4400    0.0000 H   0  0  0  0  0  0  0  0  0  0  0  0
    3.7320    1.8700    0.0000 H   0  0  0  0  0  0  0  0  0  0  0  0
    4.9272   -3.0600    0.0000 H   0  0  0  0  0  0  0  0  0  0  0  0
    7.7331   -3.0600    0.0000 H   0  0  0  0  0  0  0  0  0  0  0  0
    6.8169    1.6585    0.0000 H   0  0  0  0  0  0  0  0  0  0  0  0
    3.7320    1.6300    0.0000 H   0  0  0  0  0  0  0  0  0  0  0  0
    5.1350    4.0600    0.0000 H   0  0  0  0  0  0  0  0  0  0  0  0
    9.5990    1.9509    0.0000 H   0  0  0  0  0  0  0  0  0  0  0  0
    2.3291    2.4400    0.0000 H   0  0  0  0  0  0  0  0  0  0  0  0
    3.7320    4.8700    0.0000 H   0  0  0  0  0  0  0  0  0  0  0  0
    2.3291    1.0600    0.0000 H   0  0  0  0  0  0  0  0  0  0  0  0
    2.8660    0.1300    0.0000 H   0  0  0  0  0  0  0  0  0  0  0  0
  1 15  1  0  0  0  0
  2 22  1  0  0  0  0
  3 29  1  0  0  0  0
  4  9  1  0  0  0  0
  4 38  1  0  0  0  0
  5 10  1  0  0  0  0
  5 13  1  0  0  0  0
  5 14  1  0  0  0  0
  6  7  1  0  0  0  0
  6 11  1  0  0  0  0
  6 21  1  0  0  0  0
  7 25  2  0  0  0  0
  8 21  2  0  0  0  0
  8 25  1  0  0  0  0
  9 10  1  0  0  0  0
  9 11  1  0  0  0  0
  9 12  1  0  0  0  0
 10 30  1  0  0  0  0
 10 31  1  0  0  0  0
 11 32  1  0  0  0  0
 11 33  1  0  0  0  0
 12 15  2  0  0  0  0
 12 16  1  0  0  0  0
 13 17  1  0  0  0  0
 13 34  1  0  0  0  0
 13 35  1  0  0  0  0
 14 18  1  0  0  0  0
 14 36  1  0  0  0  0
 14 37  1  0  0  0  0
 15 19  1  0  0  0  0
 16 20  2  0  0  0  0
 16 39  1  0  0  0  0
 17 23  2  0  0  0  0
 17 24  1  0  0  0  0
 18 28  2  0  0  0  0
 18 40  1  0  0  0  0
 19 22  2  0  0  0  0
 19 41  1  0  0  0  0
 20 22  1  0  0  0  0
 20 42  1  0  0  0  0
 21 43  1  0  0  0  0
 23 26  1  0  0  0  0
 23 44  1  0  0  0  0
 24 27  2  0  0  0  0
 24 45  1  0  0  0  0
 25 46  1  0  0  0  0
 26 29  2  0  0  0  0
 26 47  1  0  0  0  0
 27 29  1  0  0  0  0
 27 48  1  0  0  0  0
 28 49  1  0  0  0  0
 28 50  1  0  0  0  0
M  END
> <PUBCHEM_COMPOUND_CID>
42631261

> <PUBCHEM_COMPOUND_CANONICALIZED>
1

> <PUBCHEM_CACTVS_COMPLEXITY>
520

> <PUBCHEM_CACTVS_HBOND_ACCEPTOR>
7

> <PUBCHEM_CACTVS_HBOND_DONOR>
1

> <PUBCHEM_CACTVS_ROTATABLE_BOND>
9

> <PUBCHEM_CACTVS_SUBSKEYS>
AAADceB7oYAAAAAAAAAAAAAAAAAAAWAAAAAwYAAAAAAAAAAB0AAAHwAICAAADETBmAw1EIcIEgCiAiBDJACSAAswgIAdyAAIDIiKLiKA2RGEcAhswAOYmAeQwOAOgAAAAAAAAAAAAAAAAAAAAAAAAAAAAA==

> <PUBCHEM_IUPAC_OPENEYE_NAME>
1-[allyl-[(4-fluorophenyl)methyl]amino]-2-(2,4-difluorophenyl)-3-(1,2,4-triazol-1-yl)propan-2-ol

> <PUBCHEM_IUPAC_CAS_NAME>
2-(2,4-difluorophenyl)-1-[(4-fluorophenyl)methyl-prop-2-enylamino]-3-(1,2,4-triazol-1-yl)-2-propanol

> <PUBCHEM_IUPAC_NAME_MARKUP>
2-(2,4-difluorophenyl)-1-[(4-fluorophenyl)methyl-prop-2-enylamino]-3-(1,2,4-triazol-1-yl)propan-2-ol

> <PUBCHEM_IUPAC_NAME>
2-(2,4-difluorophenyl)-1-[(4-fluorophenyl)methyl-prop-2-enylamino]-3-(1,2,4-triazol-1-yl)propan-2-ol

> <PUBCHEM_IUPAC_SYSTEMATIC_NAME>
2-[2,4-bis(fluoranyl)phenyl]-1-[(4-fluorophenyl)methyl-prop-2-enyl-amino]-3-(1,2,4-triazol-1-yl)propan-2-ol

> <PUBCHEM_IUPAC_TRADITIONAL_NAME>
1-[allyl-(4-fluorobenzyl)amino]-2-(2,4-difluorophenyl)-3-(1,2,4-triazol-1-yl)propan-2-ol

> <PUBCHEM_IUPAC_INCHI>
InChI=1S/C21H21F3N4O/c1-2-9-27(11-16-3-5-17(22)6-4-16)12-21(29,13-28-15-25-14-26-28)19-8-7-18(23)10-20(19)24/h2-8,10,14-15,29H,1,9,11-13H2

> <PUBCHEM_IUPAC_INCHIKEY>
DYIUIAJZZHPMBD-UHFFFAOYSA-N

> <PUBCHEM_XLOGP3>
2.9

> <PUBCHEM_EXACT_MASS>
402.16674579

> <PUBCHEM_MOLECULAR_FORMULA>
C21H21F3N4O

> <PUBCHEM_MOLECULAR_WEIGHT>
402.4

> <PUBCHEM_OPENEYE_CAN_SMILES>
C=CCN(CC1=CC=C(C=C1)F)CC(CN2C=NC=N2)(C3=C(C=C(C=C3)F)F)O

> <PUBCHEM_OPENEYE_ISO_SMILES>
C=CCN(CC1=CC=C(C=C1)F)CC(CN2C=NC=N2)(C3=C(C=C(C=C3)F)F)O

> <PUBCHEM_CACTVS_TPSA>
54.2

> <PUBCHEM_MONOISOTOPIC_WEIGHT>
402.16674579

> <PUBCHEM_TOTAL_CHARGE>
0

> <PUBCHEM_HEAVY_ATOM_COUNT>
29

> <PUBCHEM_ATOM_DEF_STEREO_COUNT>
0

> <PUBCHEM_ATOM_UDEF_STEREO_COUNT>
1

> <PUBCHEM_BOND_DEF_STEREO_COUNT>
0

> <PUBCHEM_BOND_UDEF_STEREO_COUNT>
0

> <PUBCHEM_ISOTOPIC_ATOM_COUNT>
0

> <PUBCHEM_COMPONENT_COUNT>
1

> <PUBCHEM_CACTVS_TAUTO_COUNT>
-1

> <PUBCHEM_COORDINATE_TYPE>
1
5
255

> <PUBCHEM_BONDANNOTATIONS>
12  15  8
12  16  8
15  19  8
16  20  8
17  23  8
17  24  8
19  22  8
20  22  8
23  26  8
24  27  8
26  29  8
27  29  8
9  4  3
6  21  8
6  7  8
7  25  8
8  21  8
8  25  8

$$$$
42631373
  -OEChem-09182107372D

 50 52  0     1  0  0  0  0  0999 V2000
    2.0000    4.2500    0.0000 Br  0  0  0  0  0  0  0  0  0  0  0  0
    4.5981   -1.2500    0.0000 F   0  0  0  0  0  0  0  0  0  0  0  0
    6.3301   -4.2500    0.0000 F   0  0  0  0  0  0  0  0  0  0  0  0
    5.3301   -0.2500    0.0000 O   0  0  0  0  0  0  0  0  0  0  0  0
    5.4641    1.2500    0.0000 N   0  0  3  0  0  0  0  0  0  0  0  0
    7.8301    0.6160    0.0000 N   0  0  0  0  0  0  0  0  0  0  0  0
    8.8246    0.7206    0.0000 N   0  0  0  0  0  0  0  0  0  0  0  0
    8.1665    2.1987    0.0000 N   0  0  0  0  0  0  0  0  0  0  0  0
    6.3301   -0.2500    0.0000 C   0  0  3  0  0  0  0  0  0  0  0  0
    6.3301    0.7500    0.0000 C   0  0  0  0  0  0  0  0  0  0  0  0
    7.3301   -0.2500    0.0000 C   0  0  0  0  0  0  0  0  0  0  0  0
    6.3301   -1.2500    0.0000 C   0  0  0  0  0  0  0  0  0  0  0  0
    5.4641    2.2500    0.0000 C   0  0  0  0  0  0  0  0  0  0  0  0
    4.5981    0.7500    0.0000 C   0  0  0  0  0  0  0  0  0  0  0  0
    5.4641   -1.7500    0.0000 C   0  0  0  0  0  0  0  0  0  0  0  0
    7.1962   -1.7500    0.0000 C   0  0  0  0  0  0  0  0  0  0  0  0
    4.5981    2.7500    0.0000 C   0  0  0  0  0  0  0  0  0  0  0  0
    3.7320    1.2500    0.0000 C   0  0  0  0  0  0  0  0  0  0  0  0
    5.4641   -2.7500    0.0000 C   0  0  0  0  0  0  0  0  0  0  0  0
    7.1962   -2.7500    0.0000 C   0  0  0  0  0  0  0  0  0  0  0  0
    7.4234    1.5296    0.0000 C   0  0  0  0  0  0  0  0  0  0  0  0
    6.3301   -3.2500    0.0000 C   0  0  0  0  0  0  0  0  0  0  0  0
    3.7320    2.2500    0.0000 C   0  0  0  0  0  0  0  0  0  0  0  0
    4.5981    3.7500    0.0000 C   0  0  0  0  0  0  0  0  0  0  0  0
    9.0326    1.6987    0.0000 C   0  0  0  0  0  0  0  0  0  0  0  0
    2.8660    2.7500    0.0000 C   0  0  0  0  0  0  0  0  0  0  0  0
    3.7320    4.2500    0.0000 C   0  0  0  0  0  0  0  0  0  0  0  0
    2.8660    0.7500    0.0000 C   0  0  0  0  0  0  0  0  0  0  0  0
    2.8660    3.7500    0.0000 C   0  0  0  0  0  0  0  0  0  0  0  0
    6.9407    0.6423    0.0000 H   0  0  0  0  0  0  0  0  0  0  0  0
    6.5422    1.3326    0.0000 H   0  0  0  0  0  0  0  0  0  0  0  0
    7.2225   -0.8606    0.0000 H   0  0  0  0  0  0  0  0  0  0  0  0
    7.9127   -0.4621    0.0000 H   0  0  0  0  0  0  0  0  0  0  0  0
    6.0747    2.1423    0.0000 H   0  0  0  0  0  0  0  0  0  0  0  0
    5.6762    2.8326    0.0000 H   0  0  0  0  0  0  0  0  0  0  0  0
    4.1996    0.2751    0.0000 H   0  0  0  0  0  0  0  0  0  0  0  0
    4.9966    0.2751    0.0000 H   0  0  0  0  0  0  0  0  0  0  0  0
    5.0201    0.2869    0.0000 H   0  0  0  0  0  0  0  0  0  0  0  0
    7.7331   -1.4400    0.0000 H   0  0  0  0  0  0  0  0  0  0  0  0
    3.7320    1.8700    0.0000 H   0  0  0  0  0  0  0  0  0  0  0  0
    4.9272   -3.0600    0.0000 H   0  0  0  0  0  0  0  0  0  0  0  0
    7.7331   -3.0600    0.0000 H   0  0  0  0  0  0  0  0  0  0  0  0
    6.8169    1.6585    0.0000 H   0  0  0  0  0  0  0  0  0  0  0  0
    3.7320    1.6300    0.0000 H   0  0  0  0  0  0  0  0  0  0  0  0
    5.1350    4.0600    0.0000 H   0  0  0  0  0  0  0  0  0  0  0  0
    9.5990    1.9509    0.0000 H   0  0  0  0  0  0  0  0  0  0  0  0
    2.3291    2.4400    0.0000 H   0  0  0  0  0  0  0  0  0  0  0  0
    3.7320    4.8700    0.0000 H   0  0  0  0  0  0  0  0  0  0  0  0
    2.3291    1.0600    0.0000 H   0  0  0  0  0  0  0  0  0  0  0  0
    2.8660    0.1300    0.0000 H   0  0  0  0  0  0  0  0  0  0  0  0
  1 29  1  0  0  0  0
  2 15  1  0  0  0  0
  3 22  1  0  0  0  0
  4  9  1  0  0  0  0
  4 38  1  0  0  0  0
  5 10  1  0  0  0  0
  5 13  1  0  0  0  0
  5 14  1  0  0  0  0
  6  7  1  0  0  0  0
  6 11  1  0  0  0  0
  6 21  1  0  0  0  0
  7 25  2  0  0  0  0
  8 21  2  0  0  0  0
  8 25  1  0  0  0  0
  9 10  1  0  0  0  0
  9 11  1  0  0  0  0
  9 12  1  0  0  0  0
 10 30  1  0  0  0  0
 10 31  1  0  0  0  0
 11 32  1  0  0  0  0
 11 33  1  0  0  0  0
 12 15  2  0  0  0  0
 12 16  1  0  0  0  0
 13 17  1  0  0  0  0
 13 34  1  0  0  0  0
 13 35  1  0  0  0  0
 14 18  1  0  0  0  0
 14 36  1  0  0  0  0
 14 37  1  0  0  0  0
 15 19  1  0  0  0  0
 16 20  2  0  0  0  0
 16 39  1  0  0  0  0
 17 23  2  0  0  0  0
 17 24  1  0  0  0  0
 18 28  2  0  0  0  0
 18 40  1  0  0  0  0
 19 22  2  0  0  0  0
 19 41  1  0  0  0  0
 20 22  1  0  0  0  0
 20 42  1  0  0  0  0
 21 43  1  0  0  0  0
 23 26  1  0  0  0  0
 23 44  1  0  0  0  0
 24 27  2  0  0  0  0
 24 45  1  0  0  0  0
 25 46  1  0  0  0  0
 26 29  2  0  0  0  0
 26 47  1  0  0  0  0
 27 29  1  0  0  0  0
 27 48  1  0  0  0  0
 28 49  1  0  0  0  0
 28 50  1  0  0  0  0
M  END
> <PUBCHEM_COMPOUND_CID>
42631373

> <PUBCHEM_COMPOUND_CANONICALIZED>
1

> <PUBCHEM_CACTVS_COMPLEXITY>
523

> <PUBCHEM_CACTVS_HBOND_ACCEPTOR>
6

> <PUBCHEM_CACTVS_HBOND_DONOR>
1

> <PUBCHEM_CACTVS_ROTATABLE_BOND>
9

> <PUBCHEM_CACTVS_SUBSKEYS>
AAADceB7oYAAEAAAAAAAAAAAAAAAAWAAAAAwYAAAAAAAAAAB0AAAHwBICAABrETBmAw1EIcIEgCiAiBDJACSAAswgIQdyAAIDKiKLiKA2RGEcAhswAOYmheQwOAOggAAAAAAAAAEAAAAAAAAAAAAAAAAAA==

> <PUBCHEM_IUPAC_OPENEYE_NAME>
1-[allyl-[(4-bromophenyl)methyl]amino]-2-(2,4-difluorophenyl)-3-(1,2,4-triazol-1-yl)propan-2-ol

> <PUBCHEM_IUPAC_CAS_NAME>
1-[(4-bromophenyl)methyl-prop-2-enylamino]-2-(2,4-difluorophenyl)-3-(1,2,4-triazol-1-yl)-2-propanol

> <PUBCHEM_IUPAC_NAME_MARKUP>
1-[(4-bromophenyl)methyl-prop-2-enylamino]-2-(2,4-difluorophenyl)-3-(1,2,4-triazol-1-yl)propan-2-ol

> <PUBCHEM_IUPAC_NAME>
1-[(4-bromophenyl)methyl-prop-2-enylamino]-2-(2,4-difluorophenyl)-3-(1,2,4-triazol-1-yl)propan-2-ol

> <PUBCHEM_IUPAC_SYSTEMATIC_NAME>
2-[2,4-bis(fluoranyl)phenyl]-1-[(4-bromophenyl)methyl-prop-2-enyl-amino]-3-(1,2,4-triazol-1-yl)propan-2-ol

> <PUBCHEM_IUPAC_TRADITIONAL_NAME>
1-[allyl-(4-bromobenzyl)amino]-2-(2,4-difluorophenyl)-3-(1,2,4-triazol-1-yl)propan-2-ol

> <PUBCHEM_IUPAC_INCHI>
InChI=1S/C21H21BrF2N4O/c1-2-9-27(11-16-3-5-17(22)6-4-16)12-21(29,13-28-15-25-14-26-28)19-8-7-18(23)10-20(19)24/h2-8,10,14-15,29H,1,9,11-13H2

> <PUBCHEM_IUPAC_INCHIKEY>
JBOSAXVFTHRCCQ-UHFFFAOYSA-N

> <PUBCHEM_XLOGP3_AA>
3.7

> <PUBCHEM_EXACT_MASS>
462.08668

> <PUBCHEM_MOLECULAR_FORMULA>
C21H21BrF2N4O

> <PUBCHEM_MOLECULAR_WEIGHT>
463.3

> <PUBCHEM_OPENEYE_CAN_SMILES>
C=CCN(CC1=CC=C(C=C1)Br)CC(CN2C=NC=N2)(C3=C(C=C(C=C3)F)F)O

> <PUBCHEM_OPENEYE_ISO_SMILES>
C=CCN(CC1=CC=C(C=C1)Br)CC(CN2C=NC=N2)(C3=C(C=C(C=C3)F)F)O

> <PUBCHEM_CACTVS_TPSA>
54.2

> <PUBCHEM_MONOISOTOPIC_WEIGHT>
462.08668

> <PUBCHEM_TOTAL_CHARGE>
0

> <PUBCHEM_HEAVY_ATOM_COUNT>
29

> <PUBCHEM_ATOM_DEF_STEREO_COUNT>
0

> <PUBCHEM_ATOM_UDEF_STEREO_COUNT>
1

> <PUBCHEM_BOND_DEF_STEREO_COUNT>
0

> <PUBCHEM_BOND_UDEF_STEREO_COUNT>
0

> <PUBCHEM_ISOTOPIC_ATOM_COUNT>
0

> <PUBCHEM_COMPONENT_COUNT>
1

> <PUBCHEM_CACTVS_TAUTO_COUNT>
-1

> <PUBCHEM_COORDINATE_TYPE>
1
5
255

> <PUBCHEM_BONDANNOTATIONS>
12  15  8
12  16  8
15  19  8
16  20  8
17  23  8
17  24  8
19  22  8
20  22  8
23  26  8
24  27  8
26  29  8
27  29  8
9  4  3
6  21  8
6  7  8
7  25  8
8  21  8
8  25  8

$$$$
42631370
  -OEChem-09182107372D

 50 52  0     1  0  0  0  0  0999 V2000
    2.8660    4.7500    0.0000 Cl  0  0  0  0  0  0  0  0  0  0  0  0
    3.7320   -1.7500    0.0000 F   0  0  0  0  0  0  0  0  0  0  0  0
    5.4641   -4.7500    0.0000 F   0  0  0  0  0  0  0  0  0  0  0  0
    4.4641   -0.7500    0.0000 O   0  0  0  0  0  0  0  0  0  0  0  0
    4.5981    0.7500    0.0000 N   0  0  3  0  0  0  0  0  0  0  0  0
    6.9641    0.1160    0.0000 N   0  0  0  0  0  0  0  0  0  0  0  0
    7.9586    0.2206    0.0000 N   0  0  0  0  0  0  0  0  0  0  0  0
    7.3005    1.6987    0.0000 N   0  0  0  0  0  0  0  0  0  0  0  0
    5.4641   -0.7500    0.0000 C   0  0  3  0  0  0  0  0  0  0  0  0
    5.4641    0.2500    0.0000 C   0  0  0  0  0  0  0  0  0  0  0  0
    6.4641   -0.7500    0.0000 C   0  0  0  0  0  0  0  0  0  0  0  0
    5.4641   -1.7500    0.0000 C   0  0  0  0  0  0  0  0  0  0  0  0
    4.5981    1.7500    0.0000 C   0  0  0  0  0  0  0  0  0  0  0  0
    3.7320    0.2500    0.0000 C   0  0  0  0  0  0  0  0  0  0  0  0
    4.5981   -2.2500    0.0000 C   0  0  0  0  0  0  0  0  0  0  0  0
    6.3301   -2.2500    0.0000 C   0  0  0  0  0  0  0  0  0  0  0  0
    3.7320    2.2500    0.0000 C   0  0  0  0  0  0  0  0  0  0  0  0
    2.8660    0.7500    0.0000 C   0  0  0  0  0  0  0  0  0  0  0  0
    4.5981   -3.2500    0.0000 C   0  0  0  0  0  0  0  0  0  0  0  0
    6.3301   -3.2500    0.0000 C   0  0  0  0  0  0  0  0  0  0  0  0
    6.5574    1.0296    0.0000 C   0  0  0  0  0  0  0  0  0  0  0  0
    5.4641   -3.7500    0.0000 C   0  0  0  0  0  0  0  0  0  0  0  0
    3.7320    3.2500    0.0000 C   0  0  0  0  0  0  0  0  0  0  0  0
    2.8660    1.7500    0.0000 C   0  0  0  0  0  0  0  0  0  0  0  0
    8.1665    1.1987    0.0000 C   0  0  0  0  0  0  0  0  0  0  0  0
    2.8660    3.7500    0.0000 C   0  0  0  0  0  0  0  0  0  0  0  0
    2.0000    2.2500    0.0000 C   0  0  0  0  0  0  0  0  0  0  0  0
    2.0000    0.2500    0.0000 C   0  0  0  0  0  0  0  0  0  0  0  0
    2.0000    3.2500    0.0000 C   0  0  0  0  0  0  0  0  0  0  0  0
    6.0747    0.1423    0.0000 H   0  0  0  0  0  0  0  0  0  0  0  0
    5.6762    0.8326    0.0000 H   0  0  0  0  0  0  0  0  0  0  0  0
    6.3564   -1.3606    0.0000 H   0  0  0  0  0  0  0  0  0  0  0  0
    7.0467   -0.9621    0.0000 H   0  0  0  0  0  0  0  0  0  0  0  0
    5.2087    1.6423    0.0000 H   0  0  0  0  0  0  0  0  0  0  0  0
    4.8101    2.3326    0.0000 H   0  0  0  0  0  0  0  0  0  0  0  0
    3.3335   -0.2249    0.0000 H   0  0  0  0  0  0  0  0  0  0  0  0
    4.1306   -0.2249    0.0000 H   0  0  0  0  0  0  0  0  0  0  0  0
    4.1541   -0.2131    0.0000 H   0  0  0  0  0  0  0  0  0  0  0  0
    6.8671   -1.9400    0.0000 H   0  0  0  0  0  0  0  0  0  0  0  0
    2.8660    1.3700    0.0000 H   0  0  0  0  0  0  0  0  0  0  0  0
    4.0611   -3.5600    0.0000 H   0  0  0  0  0  0  0  0  0  0  0  0
    6.8671   -3.5600    0.0000 H   0  0  0  0  0  0  0  0  0  0  0  0
    5.9509    1.1585    0.0000 H   0  0  0  0  0  0  0  0  0  0  0  0
    4.2690    3.5600    0.0000 H   0  0  0  0  0  0  0  0  0  0  0  0
    2.8660    1.1300    0.0000 H   0  0  0  0  0  0  0  0  0  0  0  0
    8.7329    1.4509    0.0000 H   0  0  0  0  0  0  0  0  0  0  0  0
    1.4631    1.9400    0.0000 H   0  0  0  0  0  0  0  0  0  0  0  0
    1.4631    0.5600    0.0000 H   0  0  0  0  0  0  0  0  0  0  0  0
    2.0000   -0.3700    0.0000 H   0  0  0  0  0  0  0  0  0  0  0  0
    1.4631    3.5600    0.0000 H   0  0  0  0  0  0  0  0  0  0  0  0
  1 26  1  0  0  0  0
  2 15  1  0  0  0  0
  3 22  1  0  0  0  0
  4  9  1  0  0  0  0
  4 38  1  0  0  0  0
  5 10  1  0  0  0  0
  5 13  1  0  0  0  0
  5 14  1  0  0  0  0
  6  7  1  0  0  0  0
  6 11  1  0  0  0  0
  6 21  1  0  0  0  0
  7 25  2  0  0  0  0
  8 21  2  0  0  0  0
  8 25  1  0  0  0  0
  9 10  1  0  0  0  0
  9 11  1  0  0  0  0
  9 12  1  0  0  0  0
 10 30  1  0  0  0  0
 10 31  1  0  0  0  0
 11 32  1  0  0  0  0
 11 33  1  0  0  0  0
 12 15  2  0  0  0  0
 12 16  1  0  0  0  0
 13 17  1  0  0  0  0
 13 34  1  0  0  0  0
 13 35  1  0  0  0  0
 14 18  1  0  0  0  0
 14 36  1  0  0  0  0
 14 37  1  0  0  0  0
 15 19  1  0  0  0  0
 16 20  2  0  0  0  0
 16 39  1  0  0  0  0
 17 23  2  0  0  0  0
 17 24  1  0  0  0  0
 18 28  2  0  0  0  0
 18 40  1  0  0  0  0
 19 22  2  0  0  0  0
 19 41  1  0  0  0  0
 20 22  1  0  0  0  0
 20 42  1  0  0  0  0
 21 43  1  0  0  0  0
 23 26  1  0  0  0  0
 23 44  1  0  0  0  0
 24 27  2  0  0  0  0
 24 45  1  0  0  0  0
 25 46  1  0  0  0  0
 26 29  2  0  0  0  0
 27 29  1  0  0  0  0
 27 47  1  0  0  0  0
 28 48  1  0  0  0  0
 28 49  1  0  0  0  0
 29 50  1  0  0  0  0
M  END
> <PUBCHEM_COMPOUND_CID>
42631370

> <PUBCHEM_COMPOUND_CANONICALIZED>
1

> <PUBCHEM_CACTVS_COMPLEXITY>
531

> <PUBCHEM_CACTVS_HBOND_ACCEPTOR>
6

> <PUBCHEM_CACTVS_HBOND_DONOR>
1

> <PUBCHEM_CACTVS_ROTATABLE_BOND>
9

> <PUBCHEM_CACTVS_SUBSKEYS>
AAADceB7oYAEAAAAAAAAAAAAAAAAAWAAAAAwYAAAAAAAAAAB0AAAHwIICAAADEbBmCw1EIcIEgCiAiBDJACSAAswhYAdyAAIDoiKLiKB2xGEcAhswAOYmAeQwOAOgAAAIAAAAAAAAABAAAAAAAAAAAAAAA==

> <PUBCHEM_IUPAC_OPENEYE_NAME>
1-[allyl-[(3-chlorophenyl)methyl]amino]-2-(2,4-difluorophenyl)-3-(1,2,4-triazol-1-yl)propan-2-ol

> <PUBCHEM_IUPAC_CAS_NAME>
1-[(3-chlorophenyl)methyl-prop-2-enylamino]-2-(2,4-difluorophenyl)-3-(1,2,4-triazol-1-yl)-2-propanol

> <PUBCHEM_IUPAC_NAME_MARKUP>
1-[(3-chlorophenyl)methyl-prop-2-enylamino]-2-(2,4-difluorophenyl)-3-(1,2,4-triazol-1-yl)propan-2-ol

> <PUBCHEM_IUPAC_NAME>
1-[(3-chlorophenyl)methyl-prop-2-enylamino]-2-(2,4-difluorophenyl)-3-(1,2,4-triazol-1-yl)propan-2-ol

> <PUBCHEM_IUPAC_SYSTEMATIC_NAME>
2-[2,4-bis(fluoranyl)phenyl]-1-[(3-chlorophenyl)methyl-prop-2-enyl-amino]-3-(1,2,4-triazol-1-yl)propan-2-ol

> <PUBCHEM_IUPAC_TRADITIONAL_NAME>
1-[allyl-(3-chlorobenzyl)amino]-2-(2,4-difluorophenyl)-3-(1,2,4-triazol-1-yl)propan-2-ol

> <PUBCHEM_IUPAC_INCHI>
InChI=1S/C21H21ClF2N4O/c1-2-8-27(11-16-4-3-5-17(22)9-16)12-21(29,13-28-15-25-14-26-28)19-7-6-18(23)10-20(19)24/h2-7,9-10,14-15,29H,1,8,11-13H2

> <PUBCHEM_IUPAC_INCHIKEY>
SRFCBPLRMAQNKU-UHFFFAOYSA-N

> <PUBCHEM_XLOGP3_AA>
3.6

> <PUBCHEM_EXACT_MASS>
418.1371953

> <PUBCHEM_MOLECULAR_FORMULA>
C21H21ClF2N4O

> <PUBCHEM_MOLECULAR_WEIGHT>
418.9

> <PUBCHEM_OPENEYE_CAN_SMILES>
C=CCN(CC1=CC(=CC=C1)Cl)CC(CN2C=NC=N2)(C3=C(C=C(C=C3)F)F)O

> <PUBCHEM_OPENEYE_ISO_SMILES>
C=CCN(CC1=CC(=CC=C1)Cl)CC(CN2C=NC=N2)(C3=C(C=C(C=C3)F)F)O

> <PUBCHEM_CACTVS_TPSA>
54.2

> <PUBCHEM_MONOISOTOPIC_WEIGHT>
418.1371953

> <PUBCHEM_TOTAL_CHARGE>
0

> <PUBCHEM_HEAVY_ATOM_COUNT>
29

> <PUBCHEM_ATOM_DEF_STEREO_COUNT>
0

> <PUBCHEM_ATOM_UDEF_STEREO_COUNT>
1

> <PUBCHEM_BOND_DEF_STEREO_COUNT>
0

> <PUBCHEM_BOND_UDEF_STEREO_COUNT>
0

> <PUBCHEM_ISOTOPIC_ATOM_COUNT>
0

> <PUBCHEM_COMPONENT_COUNT>
1

> <PUBCHEM_CACTVS_TAUTO_COUNT>
-1

> <PUBCHEM_COORDINATE_TYPE>
1
5
255

> <PUBCHEM_BONDANNOTATIONS>
12  15  8
12  16  8
15  19  8
16  20  8
17  23  8
17  24  8
19  22  8
20  22  8
23  26  8
24  27  8
26  29  8
27  29  8
9  4  3
6  21  8
6  7  8
7  25  8
8  21  8
8  25  8

$$$$
42631260
  -OEChem-09182107372D

 50 52  0     1  0  0  0  0  0999 V2000
    3.7320   -1.7500    0.0000 F   0  0  0  0  0  0  0  0  0  0  0  0
    5.4641   -4.7500    0.0000 F   0  0  0  0  0  0  0  0  0  0  0  0
    2.8660    4.7500    0.0000 F   0  0  0  0  0  0  0  0  0  0  0  0
    4.4641   -0.7500    0.0000 O   0  0  0  0  0  0  0  0  0  0  0  0
    4.5981    0.7500    0.0000 N   0  0  3  0  0  0  0  0  0  0  0  0
    6.9641    0.1160    0.0000 N   0  0  0  0  0  0  0  0  0  0  0  0
    7.9586    0.2206    0.0000 N   0  0  0  0  0  0  0  0  0  0  0  0
    7.3005    1.6987    0.0000 N   0  0  0  0  0  0  0  0  0  0  0  0
    5.4641   -0.7500    0.0000 C   0  0  3  0  0  0  0  0  0  0  0  0
    5.4641    0.2500    0.0000 C   0  0  0  0  0  0  0  0  0  0  0  0
    6.4641   -0.7500    0.0000 C   0  0  0  0  0  0  0  0  0  0  0  0
    5.4641   -1.7500    0.0000 C   0  0  0  0  0  0  0  0  0  0  0  0
    4.5981    1.7500    0.0000 C   0  0  0  0  0  0  0  0  0  0  0  0
    3.7320    0.2500    0.0000 C   0  0  0  0  0  0  0  0  0  0  0  0
    4.5981   -2.2500    0.0000 C   0  0  0  0  0  0  0  0  0  0  0  0
    6.3301   -2.2500    0.0000 C   0  0  0  0  0  0  0  0  0  0  0  0
    3.7320    2.2500    0.0000 C   0  0  0  0  0  0  0  0  0  0  0  0
    2.8660    0.7500    0.0000 C   0  0  0  0  0  0  0  0  0  0  0  0
    4.5981   -3.2500    0.0000 C   0  0  0  0  0  0  0  0  0  0  0  0
    6.3301   -3.2500    0.0000 C   0  0  0  0  0  0  0  0  0  0  0  0
    6.5574    1.0296    0.0000 C   0  0  0  0  0  0  0  0  0  0  0  0
    5.4641   -3.7500    0.0000 C   0  0  0  0  0  0  0  0  0  0  0  0
    3.7320    3.2500    0.0000 C   0  0  0  0  0  0  0  0  0  0  0  0
    2.8660    1.7500    0.0000 C   0  0  0  0  0  0  0  0  0  0  0  0
    8.1665    1.1987    0.0000 C   0  0  0  0  0  0  0  0  0  0  0  0
    2.8660    3.7500    0.0000 C   0  0  0  0  0  0  0  0  0  0  0  0
    2.0000    2.2500    0.0000 C   0  0  0  0  0  0  0  0  0  0  0  0
    2.0000    0.2500    0.0000 C   0  0  0  0  0  0  0  0  0  0  0  0
    2.0000    3.2500    0.0000 C   0  0  0  0  0  0  0  0  0  0  0  0
    6.0747    0.1423    0.0000 H   0  0  0  0  0  0  0  0  0  0  0  0
    5.6762    0.8326    0.0000 H   0  0  0  0  0  0  0  0  0  0  0  0
    6.3564   -1.3606    0.0000 H   0  0  0  0  0  0  0  0  0  0  0  0
    7.0467   -0.9621    0.0000 H   0  0  0  0  0  0  0  0  0  0  0  0
    5.2087    1.6423    0.0000 H   0  0  0  0  0  0  0  0  0  0  0  0
    4.8101    2.3326    0.0000 H   0  0  0  0  0  0  0  0  0  0  0  0
    3.3335   -0.2249    0.0000 H   0  0  0  0  0  0  0  0  0  0  0  0
    4.1306   -0.2249    0.0000 H   0  0  0  0  0  0  0  0  0  0  0  0
    4.1541   -0.2131    0.0000 H   0  0  0  0  0  0  0  0  0  0  0  0
    6.8671   -1.9400    0.0000 H   0  0  0  0  0  0  0  0  0  0  0  0
    2.8660    1.3700    0.0000 H   0  0  0  0  0  0  0  0  0  0  0  0
    4.0611   -3.5600    0.0000 H   0  0  0  0  0  0  0  0  0  0  0  0
    6.8671   -3.5600    0.0000 H   0  0  0  0  0  0  0  0  0  0  0  0
    5.9509    1.1585    0.0000 H   0  0  0  0  0  0  0  0  0  0  0  0
    4.2690    3.5600    0.0000 H   0  0  0  0  0  0  0  0  0  0  0  0
    2.8660    1.1300    0.0000 H   0  0  0  0  0  0  0  0  0  0  0  0
    8.7329    1.4509    0.0000 H   0  0  0  0  0  0  0  0  0  0  0  0
    1.4631    1.9400    0.0000 H   0  0  0  0  0  0  0  0  0  0  0  0
    1.4631    0.5600    0.0000 H   0  0  0  0  0  0  0  0  0  0  0  0
    2.0000   -0.3700    0.0000 H   0  0  0  0  0  0  0  0  0  0  0  0
    1.4631    3.5600    0.0000 H   0  0  0  0  0  0  0  0  0  0  0  0
  1 15  1  0  0  0  0
  2 22  1  0  0  0  0
  3 26  1  0  0  0  0
  4  9  1  0  0  0  0
  4 38  1  0  0  0  0
  5 10  1  0  0  0  0
  5 13  1  0  0  0  0
  5 14  1  0  0  0  0
  6  7  1  0  0  0  0
  6 11  1  0  0  0  0
  6 21  1  0  0  0  0
  7 25  2  0  0  0  0
  8 21  2  0  0  0  0
  8 25  1  0  0  0  0
  9 10  1  0  0  0  0
  9 11  1  0  0  0  0
  9 12  1  0  0  0  0
 10 30  1  0  0  0  0
 10 31  1  0  0  0  0
 11 32  1  0  0  0  0
 11 33  1  0  0  0  0
 12 15  2  0  0  0  0
 12 16  1  0  0  0  0
 13 17  1  0  0  0  0
 13 34  1  0  0  0  0
 13 35  1  0  0  0  0
 14 18  1  0  0  0  0
 14 36  1  0  0  0  0
 14 37  1  0  0  0  0
 15 19  1  0  0  0  0
 16 20  2  0  0  0  0
 16 39  1  0  0  0  0
 17 23  2  0  0  0  0
 17 24  1  0  0  0  0
 18 28  2  0  0  0  0
 18 40  1  0  0  0  0
 19 22  2  0  0  0  0
 19 41  1  0  0  0  0
 20 22  1  0  0  0  0
 20 42  1  0  0  0  0
 21 43  1  0  0  0  0
 23 26  1  0  0  0  0
 23 44  1  0  0  0  0
 24 27  2  0  0  0  0
 24 45  1  0  0  0  0
 25 46  1  0  0  0  0
 26 29  2  0  0  0  0
 27 29  1  0  0  0  0
 27 47  1  0  0  0  0
 28 48  1  0  0  0  0
 28 49  1  0  0  0  0
 29 50  1  0  0  0  0
M  END
> <PUBCHEM_COMPOUND_CID>
42631260

> <PUBCHEM_COMPOUND_CANONICALIZED>
1

> <PUBCHEM_CACTVS_COMPLEXITY>
528

> <PUBCHEM_CACTVS_HBOND_ACCEPTOR>
7

> <PUBCHEM_CACTVS_HBOND_DONOR>
1

> <PUBCHEM_CACTVS_ROTATABLE_BOND>
9

> <PUBCHEM_CACTVS_SUBSKEYS>
AAADceB7oYAAAAAAAAAAAAAAAAAAAWAAAAAwYAAAAAAAAAAB0AAAHwAICAAADETBmAw1EIcIEgCiAiBDJACSAAswgIAdyAAIDIiKLiKA2RGEcAhswAOYmAeQwOAOgAAAAAAAAAAAAAAAAAAAAAAAAAAAAA==

> <PUBCHEM_IUPAC_OPENEYE_NAME>
1-[allyl-[(3-fluorophenyl)methyl]amino]-2-(2,4-difluorophenyl)-3-(1,2,4-triazol-1-yl)propan-2-ol

> <PUBCHEM_IUPAC_CAS_NAME>
2-(2,4-difluorophenyl)-1-[(3-fluorophenyl)methyl-prop-2-enylamino]-3-(1,2,4-triazol-1-yl)-2-propanol

> <PUBCHEM_IUPAC_NAME_MARKUP>
2-(2,4-difluorophenyl)-1-[(3-fluorophenyl)methyl-prop-2-enylamino]-3-(1,2,4-triazol-1-yl)propan-2-ol

> <PUBCHEM_IUPAC_NAME>
2-(2,4-difluorophenyl)-1-[(3-fluorophenyl)methyl-prop-2-enylamino]-3-(1,2,4-triazol-1-yl)propan-2-ol

> <PUBCHEM_IUPAC_SYSTEMATIC_NAME>
2-[2,4-bis(fluoranyl)phenyl]-1-[(3-fluorophenyl)methyl-prop-2-enyl-amino]-3-(1,2,4-triazol-1-yl)propan-2-ol

> <PUBCHEM_IUPAC_TRADITIONAL_NAME>
1-[allyl-(3-fluorobenzyl)amino]-2-(2,4-difluorophenyl)-3-(1,2,4-triazol-1-yl)propan-2-ol

> <PUBCHEM_IUPAC_INCHI>
InChI=1S/C21H21F3N4O/c1-2-8-27(11-16-4-3-5-17(22)9-16)12-21(29,13-28-15-25-14-26-28)19-7-6-18(23)10-20(19)24/h2-7,9-10,14-15,29H,1,8,11-13H2

> <PUBCHEM_IUPAC_INCHIKEY>
HVGVWTUVQVPWKH-UHFFFAOYSA-N

> <PUBCHEM_XLOGP3_AA>
3.1

> <PUBCHEM_EXACT_MASS>
402.16674579

> <PUBCHEM_MOLECULAR_FORMULA>
C21H21F3N4O

> <PUBCHEM_MOLECULAR_WEIGHT>
402.4

> <PUBCHEM_OPENEYE_CAN_SMILES>
C=CCN(CC1=CC(=CC=C1)F)CC(CN2C=NC=N2)(C3=C(C=C(C=C3)F)F)O

> <PUBCHEM_OPENEYE_ISO_SMILES>
C=CCN(CC1=CC(=CC=C1)F)CC(CN2C=NC=N2)(C3=C(C=C(C=C3)F)F)O

> <PUBCHEM_CACTVS_TPSA>
54.2

> <PUBCHEM_MONOISOTOPIC_WEIGHT>
402.16674579

> <PUBCHEM_TOTAL_CHARGE>
0

> <PUBCHEM_HEAVY_ATOM_COUNT>
29

> <PUBCHEM_ATOM_DEF_STEREO_COUNT>
0

> <PUBCHEM_ATOM_UDEF_STEREO_COUNT>
1

> <PUBCHEM_BOND_DEF_STEREO_COUNT>
0

> <PUBCHEM_BOND_UDEF_STEREO_COUNT>
0

> <PUBCHEM_ISOTOPIC_ATOM_COUNT>
0

> <PUBCHEM_COMPONENT_COUNT>
1

> <PUBCHEM_CACTVS_TAUTO_COUNT>
-1

> <PUBCHEM_COORDINATE_TYPE>
1
5
255

> <PUBCHEM_BONDANNOTATIONS>
12  15  8
12  16  8
15  19  8
16  20  8
17  23  8
17  24  8
19  22  8
20  22  8
23  26  8
24  27  8
26  29  8
27  29  8
9  4  3
6  21  8
6  7  8
7  25  8
8  21  8
8  25  8

$$$$
42631372
  -OEChem-09182107372D

 50 52  0     1  0  0  0  0  0999 V2000
    4.5981    4.2500    0.0000 Br  0  0  0  0  0  0  0  0  0  0  0  0
    3.7320   -1.2500    0.0000 F   0  0  0  0  0  0  0  0  0  0  0  0
    5.4641   -4.2500    0.0000 F   0  0  0  0  0  0  0  0  0  0  0  0
    4.4641   -0.2500    0.0000 O   0  0  0  0  0  0  0  0  0  0  0  0
    4.5981    1.2500    0.0000 N   0  0  3  0  0  0  0  0  0  0  0  0
    6.9641    0.6160    0.0000 N   0  0  0  0  0  0  0  0  0  0  0  0
    7.9586    0.7206    0.0000 N   0  0  0  0  0  0  0  0  0  0  0  0
    7.3005    2.1987    0.0000 N   0  0  0  0  0  0  0  0  0  0  0  0
    5.4641   -0.2500    0.0000 C   0  0  3  0  0  0  0  0  0  0  0  0
    5.4641    0.7500    0.0000 C   0  0  0  0  0  0  0  0  0  0  0  0
    6.4641   -0.2500    0.0000 C   0  0  0  0  0  0  0  0  0  0  0  0
    5.4641   -1.2500    0.0000 C   0  0  0  0  0  0  0  0  0  0  0  0
    4.5981    2.2500    0.0000 C   0  0  0  0  0  0  0  0  0  0  0  0
    3.7320    0.7500    0.0000 C   0  0  0  0  0  0  0  0  0  0  0  0
    4.5981   -1.7500    0.0000 C   0  0  0  0  0  0  0  0  0  0  0  0
    6.3301   -1.7500    0.0000 C   0  0  0  0  0  0  0  0  0  0  0  0
    3.7320    2.7500    0.0000 C   0  0  0  0  0  0  0  0  0  0  0  0
    2.8660    1.2500    0.0000 C   0  0  0  0  0  0  0  0  0  0  0  0
    4.5981   -2.7500    0.0000 C   0  0  0  0  0  0  0  0  0  0  0  0
    6.3301   -2.7500    0.0000 C   0  0  0  0  0  0  0  0  0  0  0  0
    6.5574    1.5296    0.0000 C   0  0  0  0  0  0  0  0  0  0  0  0
    5.4641   -3.2500    0.0000 C   0  0  0  0  0  0  0  0  0  0  0  0
    3.7320    3.7500    0.0000 C   0  0  0  0  0  0  0  0  0  0  0  0
    2.8660    2.2500    0.0000 C   0  0  0  0  0  0  0  0  0  0  0  0
    8.1665    1.6987    0.0000 C   0  0  0  0  0  0  0  0  0  0  0  0
    2.8660    4.2500    0.0000 C   0  0  0  0  0  0  0  0  0  0  0  0
    2.0000    2.7500    0.0000 C   0  0  0  0  0  0  0  0  0  0  0  0
    2.0000    0.7500    0.0000 C   0  0  0  0  0  0  0  0  0  0  0  0
    2.0000    3.7500    0.0000 C   0  0  0  0  0  0  0  0  0  0  0  0
    6.0747    0.6423    0.0000 H   0  0  0  0  0  0  0  0  0  0  0  0
    5.6762    1.3326    0.0000 H   0  0  0  0  0  0  0  0  0  0  0  0
    6.3564   -0.8606    0.0000 H   0  0  0  0  0  0  0  0  0  0  0  0
    7.0467   -0.4621    0.0000 H   0  0  0  0  0  0  0  0  0  0  0  0
    5.2087    2.1423    0.0000 H   0  0  0  0  0  0  0  0  0  0  0  0
    4.8101    2.8326    0.0000 H   0  0  0  0  0  0  0  0  0  0  0  0
    3.3335    0.2751    0.0000 H   0  0  0  0  0  0  0  0  0  0  0  0
    4.1306    0.2751    0.0000 H   0  0  0  0  0  0  0  0  0  0  0  0
    4.1541    0.2869    0.0000 H   0  0  0  0  0  0  0  0  0  0  0  0
    6.8671   -1.4400    0.0000 H   0  0  0  0  0  0  0  0  0  0  0  0
    2.8660    1.8700    0.0000 H   0  0  0  0  0  0  0  0  0  0  0  0
    4.0611   -3.0600    0.0000 H   0  0  0  0  0  0  0  0  0  0  0  0
    6.8671   -3.0600    0.0000 H   0  0  0  0  0  0  0  0  0  0  0  0
    5.9509    1.6585    0.0000 H   0  0  0  0  0  0  0  0  0  0  0  0
    2.8660    1.6300    0.0000 H   0  0  0  0  0  0  0  0  0  0  0  0
    8.7329    1.9509    0.0000 H   0  0  0  0  0  0  0  0  0  0  0  0
    2.8660    4.8700    0.0000 H   0  0  0  0  0  0  0  0  0  0  0  0
    1.4631    2.4400    0.0000 H   0  0  0  0  0  0  0  0  0  0  0  0
    1.4631    1.0600    0.0000 H   0  0  0  0  0  0  0  0  0  0  0  0
    2.0000    0.1300    0.0000 H   0  0  0  0  0  0  0  0  0  0  0  0
    1.4631    4.0600    0.0000 H   0  0  0  0  0  0  0  0  0  0  0  0
  1 23  1  0  0  0  0
  2 15  1  0  0  0  0
  3 22  1  0  0  0  0
  4  9  1  0  0  0  0
  4 38  1  0  0  0  0
  5 10  1  0  0  0  0
  5 13  1  0  0  0  0
  5 14  1  0  0  0  0
  6  7  1  0  0  0  0
  6 11  1  0  0  0  0
  6 21  1  0  0  0  0
  7 25  2  0  0  0  0
  8 21  2  0  0  0  0
  8 25  1  0  0  0  0
  9 10  1  0  0  0  0
  9 11  1  0  0  0  0
  9 12  1  0  0  0  0
 10 30  1  0  0  0  0
 10 31  1  0  0  0  0
 11 32  1  0  0  0  0
 11 33  1  0  0  0  0
 12 15  2  0  0  0  0
 12 16  1  0  0  0  0
 13 17  1  0  0  0  0
 13 34  1  0  0  0  0
 13 35  1  0  0  0  0
 14 18  1  0  0  0  0
 14 36  1  0  0  0  0
 14 37  1  0  0  0  0
 15 19  1  0  0  0  0
 16 20  2  0  0  0  0
 16 39  1  0  0  0  0
 17 23  1  0  0  0  0
 17 24  2  0  0  0  0
 18 28  2  0  0  0  0
 18 40  1  0  0  0  0
 19 22  2  0  0  0  0
 19 41  1  0  0  0  0
 20 22  1  0  0  0  0
 20 42  1  0  0  0  0
 21 43  1  0  0  0  0
 23 26  2  0  0  0  0
 24 27  1  0  0  0  0
 24 44  1  0  0  0  0
 25 45  1  0  0  0  0
 26 29  1  0  0  0  0
 26 46  1  0  0  0  0
 27 29  2  0  0  0  0
 27 47  1  0  0  0  0
 28 48  1  0  0  0  0
 28 49  1  0  0  0  0
 29 50  1  0  0  0  0
M  END
> <PUBCHEM_COMPOUND_CID>
42631372

> <PUBCHEM_COMPOUND_CANONICALIZED>
1

> <PUBCHEM_CACTVS_COMPLEXITY>
531

> <PUBCHEM_CACTVS_HBOND_ACCEPTOR>
6

> <PUBCHEM_CACTVS_HBOND_DONOR>
1

> <PUBCHEM_CACTVS_ROTATABLE_BOND>
9

> <PUBCHEM_CACTVS_SUBSKEYS>
AAADceB7oYAAEAAAAAAAAAAAAAAAAWAAAAAwYAAAAAAAAAAB0AAAHwBICAABrETBmAw1EIcIEgCiAiBDJACSAAswgIQdyAAIDKiKLiKA2RGEcAhswAOYmheQwOAOgAAAAAAAgAAAAAAAAAEAAAAAAAAAAA==

> <PUBCHEM_IUPAC_OPENEYE_NAME>
1-[allyl-[(2-bromophenyl)methyl]amino]-2-(2,4-difluorophenyl)-3-(1,2,4-triazol-1-yl)propan-2-ol

> <PUBCHEM_IUPAC_CAS_NAME>
1-[(2-bromophenyl)methyl-prop-2-enylamino]-2-(2,4-difluorophenyl)-3-(1,2,4-triazol-1-yl)-2-propanol

> <PUBCHEM_IUPAC_NAME_MARKUP>
1-[(2-bromophenyl)methyl-prop-2-enylamino]-2-(2,4-difluorophenyl)-3-(1,2,4-triazol-1-yl)propan-2-ol

> <PUBCHEM_IUPAC_NAME>
1-[(2-bromophenyl)methyl-prop-2-enylamino]-2-(2,4-difluorophenyl)-3-(1,2,4-triazol-1-yl)propan-2-ol

> <PUBCHEM_IUPAC_SYSTEMATIC_NAME>
2-[2,4-bis(fluoranyl)phenyl]-1-[(2-bromophenyl)methyl-prop-2-enyl-amino]-3-(1,2,4-triazol-1-yl)propan-2-ol

> <PUBCHEM_IUPAC_TRADITIONAL_NAME>
1-[allyl-(2-bromobenzyl)amino]-2-(2,4-difluorophenyl)-3-(1,2,4-triazol-1-yl)propan-2-ol

> <PUBCHEM_IUPAC_INCHI>
InChI=1S/C21H21BrF2N4O/c1-2-9-27(11-16-5-3-4-6-19(16)22)12-21(29,13-28-15-25-14-26-28)18-8-7-17(23)10-20(18)24/h2-8,10,14-15,29H,1,9,11-13H2

> <PUBCHEM_IUPAC_INCHIKEY>
AWICBISOCKDYTM-UHFFFAOYSA-N

> <PUBCHEM_XLOGP3_AA>
3.7

> <PUBCHEM_EXACT_MASS>
462.08668

> <PUBCHEM_MOLECULAR_FORMULA>
C21H21BrF2N4O

> <PUBCHEM_MOLECULAR_WEIGHT>
463.3

> <PUBCHEM_OPENEYE_CAN_SMILES>
C=CCN(CC1=CC=CC=C1Br)CC(CN2C=NC=N2)(C3=C(C=C(C=C3)F)F)O

> <PUBCHEM_OPENEYE_ISO_SMILES>
C=CCN(CC1=CC=CC=C1Br)CC(CN2C=NC=N2)(C3=C(C=C(C=C3)F)F)O

> <PUBCHEM_CACTVS_TPSA>
54.2

> <PUBCHEM_MONOISOTOPIC_WEIGHT>
462.08668

> <PUBCHEM_TOTAL_CHARGE>
0

> <PUBCHEM_HEAVY_ATOM_COUNT>
29

> <PUBCHEM_ATOM_DEF_STEREO_COUNT>
0

> <PUBCHEM_ATOM_UDEF_STEREO_COUNT>
1

> <PUBCHEM_BOND_DEF_STEREO_COUNT>
0

> <PUBCHEM_BOND_UDEF_STEREO_COUNT>
0

> <PUBCHEM_ISOTOPIC_ATOM_COUNT>
0

> <PUBCHEM_COMPONENT_COUNT>
1

> <PUBCHEM_CACTVS_TAUTO_COUNT>
-1

> <PUBCHEM_COORDINATE_TYPE>
1
5
255

> <PUBCHEM_BONDANNOTATIONS>
12  15  8
12  16  8
15  19  8
16  20  8
17  23  8
17  24  8
19  22  8
20  22  8
23  26  8
24  27  8
26  29  8
27  29  8
9  4  3
6  21  8
6  7  8
7  25  8
8  21  8
8  25  8

$$$$
42631480
  -OEChem-09182107372D

 56 58  0     1  0  0  0  0  0999 V2000
    4.5981   -1.7500    0.0000 F   0  0  0  0  0  0  0  0  0  0  0  0
    6.3301   -4.7500    0.0000 F   0  0  0  0  0  0  0  0  0  0  0  0
    5.3301   -0.7500    0.0000 O   0  0  0  0  0  0  0  0  0  0  0  0
    5.4641    0.7500    0.0000 N   0  0  3  0  0  0  0  0  0  0  0  0
    7.8301    0.1160    0.0000 N   0  0  0  0  0  0  0  0  0  0  0  0
    8.8246    0.2206    0.0000 N   0  0  0  0  0  0  0  0  0  0  0  0
    8.1665    1.6987    0.0000 N   0  0  0  0  0  0  0  0  0  0  0  0
    6.3301   -0.7500    0.0000 C   0  0  3  0  0  0  0  0  0  0  0  0
    6.3301    0.2500    0.0000 C   0  0  0  0  0  0  0  0  0  0  0  0
    7.3301   -0.7500    0.0000 C   0  0  0  0  0  0  0  0  0  0  0  0
    6.3301   -1.7500    0.0000 C   0  0  0  0  0  0  0  0  0  0  0  0
    5.4641    1.7500    0.0000 C   0  0  0  0  0  0  0  0  0  0  0  0
    4.5981    0.2500    0.0000 C   0  0  0  0  0  0  0  0  0  0  0  0
    4.5981    2.2500    0.0000 C   0  0  0  0  0  0  0  0  0  0  0  0
    5.4641   -2.2500    0.0000 C   0  0  0  0  0  0  0  0  0  0  0  0
    7.1962   -2.2500    0.0000 C   0  0  0  0  0  0  0  0  0  0  0  0
    3.7320    0.7500    0.0000 C   0  0  0  0  0  0  0  0  0  0  0  0
    4.5981    3.2500    0.0000 C   0  0  0  0  0  0  0  0  0  0  0  0
    3.7320    1.7500    0.0000 C   0  0  0  0  0  0  0  0  0  0  0  0
    5.4641   -3.2500    0.0000 C   0  0  0  0  0  0  0  0  0  0  0  0
    7.1962   -3.2500    0.0000 C   0  0  0  0  0  0  0  0  0  0  0  0
    7.4234    1.0296    0.0000 C   0  0  0  0  0  0  0  0  0  0  0  0
    6.3301   -3.7500    0.0000 C   0  0  0  0  0  0  0  0  0  0  0  0
    2.8660    3.2500    0.0000 C   0  0  0  0  0  0  0  0  0  0  0  0
    3.7320    3.7500    0.0000 C   0  0  0  0  0  0  0  0  0  0  0  0
    2.8660    2.2500    0.0000 C   0  0  0  0  0  0  0  0  0  0  0  0
    2.0000    3.7500    0.0000 C   0  0  0  0  0  0  0  0  0  0  0  0
    9.0326    1.1987    0.0000 C   0  0  0  0  0  0  0  0  0  0  0  0
    2.8660    0.2500    0.0000 C   0  0  0  0  0  0  0  0  0  0  0  0
    2.0000    4.7500    0.0000 C   0  0  0  0  0  0  0  0  0  0  0  0
    6.9407    0.1423    0.0000 H   0  0  0  0  0  0  0  0  0  0  0  0
    6.5422    0.8326    0.0000 H   0  0  0  0  0  0  0  0  0  0  0  0
    7.2225   -1.3606    0.0000 H   0  0  0  0  0  0  0  0  0  0  0  0
    7.9127   -0.9621    0.0000 H   0  0  0  0  0  0  0  0  0  0  0  0
    6.0747    1.6423    0.0000 H   0  0  0  0  0  0  0  0  0  0  0  0
    5.6762    2.3326    0.0000 H   0  0  0  0  0  0  0  0  0  0  0  0
    4.1996   -0.2249    0.0000 H   0  0  0  0  0  0  0  0  0  0  0  0
    4.9966   -0.2249    0.0000 H   0  0  0  0  0  0  0  0  0  0  0  0
    5.0201   -0.2131    0.0000 H   0  0  0  0  0  0  0  0  0  0  0  0
    7.7331   -1.9400    0.0000 H   0  0  0  0  0  0  0  0  0  0  0  0
    3.7320    1.3700    0.0000 H   0  0  0  0  0  0  0  0  0  0  0  0
    5.1350    3.5600    0.0000 H   0  0  0  0  0  0  0  0  0  0  0  0
    3.7320    1.1300    0.0000 H   0  0  0  0  0  0  0  0  0  0  0  0
    4.9272   -3.5600    0.0000 H   0  0  0  0  0  0  0  0  0  0  0  0
    7.7331   -3.5600    0.0000 H   0  0  0  0  0  0  0  0  0  0  0  0
    6.8169    1.1585    0.0000 H   0  0  0  0  0  0  0  0  0  0  0  0
    3.7320    4.3700    0.0000 H   0  0  0  0  0  0  0  0  0  0  0  0
    2.3291    1.9400    0.0000 H   0  0  0  0  0  0  0  0  0  0  0  0
    1.3894    3.8577    0.0000 H   0  0  0  0  0  0  0  0  0  0  0  0
    1.7880    3.1674    0.0000 H   0  0  0  0  0  0  0  0  0  0  0  0
    9.5990    1.4509    0.0000 H   0  0  0  0  0  0  0  0  0  0  0  0
    2.3291    0.5600    0.0000 H   0  0  0  0  0  0  0  0  0  0  0  0
    2.8660   -0.3700    0.0000 H   0  0  0  0  0  0  0  0  0  0  0  0
    2.6200    4.7500    0.0000 H   0  0  0  0  0  0  0  0  0  0  0  0
    2.0000    5.3700    0.0000 H   0  0  0  0  0  0  0  0  0  0  0  0
    1.3800    4.7500    0.0000 H   0  0  0  0  0  0  0  0  0  0  0  0
  1 15  1  0  0  0  0
  2 23  1  0  0  0  0
  3  8  1  0  0  0  0
  3 39  1  0  0  0  0
  4  9  1  0  0  0  0
  4 12  1  0  0  0  0
  4 13  1  0  0  0  0
  5  6  1  0  0  0  0
  5 10  1  0  0  0  0
  5 22  1  0  0  0  0
  6 28  2  0  0  0  0
  7 22  2  0  0  0  0
  7 28  1  0  0  0  0
  8  9  1  0  0  0  0
  8 10  1  0  0  0  0
  8 11  1  0  0  0  0
  9 31  1  0  0  0  0
  9 32  1  0  0  0  0
 10 33  1  0  0  0  0
 10 34  1  0  0  0  0
 11 15  2  0  0  0  0
 11 16  1  0  0  0  0
 12 14  1  0  0  0  0
 12 35  1  0  0  0  0
 12 36  1  0  0  0  0
 13 17  1  0  0  0  0
 13 37  1  0  0  0  0
 13 38  1  0  0  0  0
 14 18  2  0  0  0  0
 14 19  1  0  0  0  0
 15 20  1  0  0  0  0
 16 21  2  0  0  0  0
 16 40  1  0  0  0  0
 17 29  2  0  0  0  0
 17 41  1  0  0  0  0
 18 25  1  0  0  0  0
 18 42  1  0  0  0  0
 19 26  2  0  0  0  0
 19 43  1  0  0  0  0
 20 23  2  0  0  0  0
 20 44  1  0  0  0  0
 21 23  1  0  0  0  0
 21 45  1  0  0  0  0
 22 46  1  0  0  0  0
 24 25  2  0  0  0  0
 24 26  1  0  0  0  0
 24 27  1  0  0  0  0
 25 47  1  0  0  0  0
 26 48  1  0  0  0  0
 27 30  1  0  0  0  0
 27 49  1  0  0  0  0
 27 50  1  0  0  0  0
 28 51  1  0  0  0  0
 29 52  1  0  0  0  0
 29 53  1  0  0  0  0
 30 54  1  0  0  0  0
 30 55  1  0  0  0  0
 30 56  1  0  0  0  0
M  END
> <PUBCHEM_COMPOUND_CID>
42631480

> <PUBCHEM_COMPOUND_CANONICALIZED>
1

> <PUBCHEM_CACTVS_COMPLEXITY>
531

> <PUBCHEM_CACTVS_HBOND_ACCEPTOR>
6

> <PUBCHEM_CACTVS_HBOND_DONOR>
1

> <PUBCHEM_CACTVS_ROTATABLE_BOND>
10

> <PUBCHEM_CACTVS_SUBSKEYS>
AAADceB7oYAAAAAAAAAAAAAAAAAAAWAAAAAwYAAAAAAAAAAB0AAAHwAICAAADETBmAw3EIcIEgCiAiBDJACSAAswgIAdyAAIDIiKLiKA2RGEcAhswAOYmAeQwOAOwAAAAAAAAACAAAAAAAAAAAAAAAAAAA==

> <PUBCHEM_IUPAC_OPENEYE_NAME>
1-[allyl-[(4-ethylphenyl)methyl]amino]-2-(2,4-difluorophenyl)-3-(1,2,4-triazol-1-yl)propan-2-ol

> <PUBCHEM_IUPAC_CAS_NAME>
2-(2,4-difluorophenyl)-1-[(4-ethylphenyl)methyl-prop-2-enylamino]-3-(1,2,4-triazol-1-yl)-2-propanol

> <PUBCHEM_IUPAC_NAME_MARKUP>
2-(2,4-difluorophenyl)-1-[(4-ethylphenyl)methyl-prop-2-enylamino]-3-(1,2,4-triazol-1-yl)propan-2-ol

> <PUBCHEM_IUPAC_NAME>
2-(2,4-difluorophenyl)-1-[(4-ethylphenyl)methyl-prop-2-enylamino]-3-(1,2,4-triazol-1-yl)propan-2-ol

> <PUBCHEM_IUPAC_SYSTEMATIC_NAME>
2-[2,4-bis(fluoranyl)phenyl]-1-[(4-ethylphenyl)methyl-prop-2-enyl-amino]-3-(1,2,4-triazol-1-yl)propan-2-ol

> <PUBCHEM_IUPAC_TRADITIONAL_NAME>
1-[allyl-(4-ethylbenzyl)amino]-2-(2,4-difluorophenyl)-3-(1,2,4-triazol-1-yl)propan-2-ol

> <PUBCHEM_IUPAC_INCHI>
InChI=1S/C23H26F2N4O/c1-3-11-28(13-19-7-5-18(4-2)6-8-19)14-23(30,15-29-17-26-16-27-29)21-10-9-20(24)12-22(21)25/h3,5-10,12,16-17,30H,1,4,11,13-15H2,2H3

> <PUBCHEM_IUPAC_INCHIKEY>
UNNCVAALWVYWBN-UHFFFAOYSA-N

> <PUBCHEM_XLOGP3_AA>
3.8

> <PUBCHEM_EXACT_MASS>
412.20746779

> <PUBCHEM_MOLECULAR_FORMULA>
C23H26F2N4O

> <PUBCHEM_MOLECULAR_WEIGHT>
412.5

> <PUBCHEM_OPENEYE_CAN_SMILES>
CCC1=CC=C(C=C1)CN(CC=C)CC(CN2C=NC=N2)(C3=C(C=C(C=C3)F)F)O

> <PUBCHEM_OPENEYE_ISO_SMILES>
CCC1=CC=C(C=C1)CN(CC=C)CC(CN2C=NC=N2)(C3=C(C=C(C=C3)F)F)O

> <PUBCHEM_CACTVS_TPSA>
54.2

> <PUBCHEM_MONOISOTOPIC_WEIGHT>
412.20746779

> <PUBCHEM_TOTAL_CHARGE>
0

> <PUBCHEM_HEAVY_ATOM_COUNT>
30

> <PUBCHEM_ATOM_DEF_STEREO_COUNT>
0

> <PUBCHEM_ATOM_UDEF_STEREO_COUNT>
1

> <PUBCHEM_BOND_DEF_STEREO_COUNT>
0

> <PUBCHEM_BOND_UDEF_STEREO_COUNT>
0

> <PUBCHEM_ISOTOPIC_ATOM_COUNT>
0

> <PUBCHEM_COMPONENT_COUNT>
1

> <PUBCHEM_CACTVS_TAUTO_COUNT>
-1

> <PUBCHEM_COORDINATE_TYPE>
1
5
255

> <PUBCHEM_BONDANNOTATIONS>
11  15  8
11  16  8
14  18  8
14  19  8
15  20  8
16  21  8
18  25  8
19  26  8
20  23  8
21  23  8
24  25  8
24  26  8
8  3  3
5  22  8
5  6  8
6  28  8
7  22  8
7  28  8

$$$$
42631262
  -OEChem-09182107372D

 50 52  0     1  0  0  0  0  0999 V2000
    4.5981    4.2500    0.0000 Cl  0  0  0  0  0  0  0  0  0  0  0  0
    3.7320   -1.2500    0.0000 F   0  0  0  0  0  0  0  0  0  0  0  0
    5.4641   -4.2500    0.0000 F   0  0  0  0  0  0  0  0  0  0  0  0
    4.4641   -0.2500    0.0000 O   0  0  0  0  0  0  0  0  0  0  0  0
    4.5981    1.2500    0.0000 N   0  0  3  0  0  0  0  0  0  0  0  0
    6.9641    0.6160    0.0000 N   0  0  0  0  0  0  0  0  0  0  0  0
    7.9586    0.7206    0.0000 N   0  0  0  0  0  0  0  0  0  0  0  0
    7.3005    2.1987    0.0000 N   0  0  0  0  0  0  0  0  0  0  0  0
    5.4641   -0.2500    0.0000 C   0  0  3  0  0  0  0  0  0  0  0  0
    5.4641    0.7500    0.0000 C   0  0  0  0  0  0  0  0  0  0  0  0
    6.4641   -0.2500    0.0000 C   0  0  0  0  0  0  0  0  0  0  0  0
    5.4641   -1.2500    0.0000 C   0  0  0  0  0  0  0  0  0  0  0  0
    4.5981    2.2500    0.0000 C   0  0  0  0  0  0  0  0  0  0  0  0
    3.7320    0.7500    0.0000 C   0  0  0  0  0  0  0  0  0  0  0  0
    4.5981   -1.7500    0.0000 C   0  0  0  0  0  0  0  0  0  0  0  0
    6.3301   -1.7500    0.0000 C   0  0  0  0  0  0  0  0  0  0  0  0
    3.7320    2.7500    0.0000 C   0  0  0  0  0  0  0  0  0  0  0  0
    2.8660    1.2500    0.0000 C   0  0  0  0  0  0  0  0  0  0  0  0
    4.5981   -2.7500    0.0000 C   0  0  0  0  0  0  0  0  0  0  0  0
    6.3301   -2.7500    0.0000 C   0  0  0  0  0  0  0  0  0  0  0  0
    6.5574    1.5296    0.0000 C   0  0  0  0  0  0  0  0  0  0  0  0
    5.4641   -3.2500    0.0000 C   0  0  0  0  0  0  0  0  0  0  0  0
    3.7320    3.7500    0.0000 C   0  0  0  0  0  0  0  0  0  0  0  0
    2.8660    2.2500    0.0000 C   0  0  0  0  0  0  0  0  0  0  0  0
    8.1665    1.6987    0.0000 C   0  0  0  0  0  0  0  0  0  0  0  0
    2.8660    4.2500    0.0000 C   0  0  0  0  0  0  0  0  0  0  0  0
    2.0000    2.7500    0.0000 C   0  0  0  0  0  0  0  0  0  0  0  0
    2.0000    0.7500    0.0000 C   0  0  0  0  0  0  0  0  0  0  0  0
    2.0000    3.7500    0.0000 C   0  0  0  0  0  0  0  0  0  0  0  0
    6.0747    0.6423    0.0000 H   0  0  0  0  0  0  0  0  0  0  0  0
    5.6762    1.3326    0.0000 H   0  0  0  0  0  0  0  0  0  0  0  0
    6.3564   -0.8606    0.0000 H   0  0  0  0  0  0  0  0  0  0  0  0
    7.0467   -0.4621    0.0000 H   0  0  0  0  0  0  0  0  0  0  0  0
    5.2087    2.1423    0.0000 H   0  0  0  0  0  0  0  0  0  0  0  0
    4.8101    2.8326    0.0000 H   0  0  0  0  0  0  0  0  0  0  0  0
    3.3335    0.2751    0.0000 H   0  0  0  0  0  0  0  0  0  0  0  0
    4.1306    0.2751    0.0000 H   0  0  0  0  0  0  0  0  0  0  0  0
    4.1541    0.2869    0.0000 H   0  0  0  0  0  0  0  0  0  0  0  0
    6.8671   -1.4400    0.0000 H   0  0  0  0  0  0  0  0  0  0  0  0
    2.8660    1.8700    0.0000 H   0  0  0  0  0  0  0  0  0  0  0  0
    4.0611   -3.0600    0.0000 H   0  0  0  0  0  0  0  0  0  0  0  0
    6.8671   -3.0600    0.0000 H   0  0  0  0  0  0  0  0  0  0  0  0
    5.9509    1.6585    0.0000 H   0  0  0  0  0  0  0  0  0  0  0  0
    2.8660    1.6300    0.0000 H   0  0  0  0  0  0  0  0  0  0  0  0
    8.7329    1.9509    0.0000 H   0  0  0  0  0  0  0  0  0  0  0  0
    2.8660    4.8700    0.0000 H   0  0  0  0  0  0  0  0  0  0  0  0
    1.4631    2.4400    0.0000 H   0  0  0  0  0  0  0  0  0  0  0  0
    1.4631    1.0600    0.0000 H   0  0  0  0  0  0  0  0  0  0  0  0
    2.0000    0.1300    0.0000 H   0  0  0  0  0  0  0  0  0  0  0  0
    1.4631    4.0600    0.0000 H   0  0  0  0  0  0  0  0  0  0  0  0
  1 23  1  0  0  0  0
  2 15  1  0  0  0  0
  3 22  1  0  0  0  0
  4  9  1  0  0  0  0
  4 38  1  0  0  0  0
  5 10  1  0  0  0  0
  5 13  1  0  0  0  0
  5 14  1  0  0  0  0
  6  7  1  0  0  0  0
  6 11  1  0  0  0  0
  6 21  1  0  0  0  0
  7 25  2  0  0  0  0
  8 21  2  0  0  0  0
  8 25  1  0  0  0  0
  9 10  1  0  0  0  0
  9 11  1  0  0  0  0
  9 12  1  0  0  0  0
 10 30  1  0  0  0  0
 10 31  1  0  0  0  0
 11 32  1  0  0  0  0
 11 33  1  0  0  0  0
 12 15  2  0  0  0  0
 12 16  1  0  0  0  0
 13 17  1  0  0  0  0
 13 34  1  0  0  0  0
 13 35  1  0  0  0  0
 14 18  1  0  0  0  0
 14 36  1  0  0  0  0
 14 37  1  0  0  0  0
 15 19  1  0  0  0  0
 16 20  2  0  0  0  0
 16 39  1  0  0  0  0
 17 23  1  0  0  0  0
 17 24  2  0  0  0  0
 18 28  2  0  0  0  0
 18 40  1  0  0  0  0
 19 22  2  0  0  0  0
 19 41  1  0  0  0  0
 20 22  1  0  0  0  0
 20 42  1  0  0  0  0
 21 43  1  0  0  0  0
 23 26  2  0  0  0  0
 24 27  1  0  0  0  0
 24 44  1  0  0  0  0
 25 45  1  0  0  0  0
 26 29  1  0  0  0  0
 26 46  1  0  0  0  0
 27 29  2  0  0  0  0
 27 47  1  0  0  0  0
 28 48  1  0  0  0  0
 28 49  1  0  0  0  0
 29 50  1  0  0  0  0
M  END
> <PUBCHEM_COMPOUND_CID>
42631262

> <PUBCHEM_COMPOUND_CANONICALIZED>
1

> <PUBCHEM_CACTVS_COMPLEXITY>
531

> <PUBCHEM_CACTVS_HBOND_ACCEPTOR>
6

> <PUBCHEM_CACTVS_HBOND_DONOR>
1

> <PUBCHEM_CACTVS_ROTATABLE_BOND>
9

> <PUBCHEM_CACTVS_SUBSKEYS>
AAADceB7oYAEAAAAAAAAAAAAAAAAAWAAAAAwYAAAAAAAAAAB0AAAHwIICAAADEbBmCw1EIcIEgCiAiBDJACSAAswhYAdyAAIDoiKLiKB2xGEcAhswAOYmAeQwOAOgAAAAAABAAAAAAAAAAIAAAAAAAAAAA==

> <PUBCHEM_IUPAC_OPENEYE_NAME>
1-[allyl-[(2-chlorophenyl)methyl]amino]-2-(2,4-difluorophenyl)-3-(1,2,4-triazol-1-yl)propan-2-ol

> <PUBCHEM_IUPAC_CAS_NAME>
1-[(2-chlorophenyl)methyl-prop-2-enylamino]-2-(2,4-difluorophenyl)-3-(1,2,4-triazol-1-yl)-2-propanol

> <PUBCHEM_IUPAC_NAME_MARKUP>
1-[(2-chlorophenyl)methyl-prop-2-enylamino]-2-(2,4-difluorophenyl)-3-(1,2,4-triazol-1-yl)propan-2-ol

> <PUBCHEM_IUPAC_NAME>
1-[(2-chlorophenyl)methyl-prop-2-enylamino]-2-(2,4-difluorophenyl)-3-(1,2,4-triazol-1-yl)propan-2-ol

> <PUBCHEM_IUPAC_SYSTEMATIC_NAME>
2-[2,4-bis(fluoranyl)phenyl]-1-[(2-chlorophenyl)methyl-prop-2-enyl-amino]-3-(1,2,4-triazol-1-yl)propan-2-ol

> <PUBCHEM_IUPAC_TRADITIONAL_NAME>
1-[allyl-(2-chlorobenzyl)amino]-2-(2,4-difluorophenyl)-3-(1,2,4-triazol-1-yl)propan-2-ol

> <PUBCHEM_IUPAC_INCHI>
InChI=1S/C21H21ClF2N4O/c1-2-9-27(11-16-5-3-4-6-19(16)22)12-21(29,13-28-15-25-14-26-28)18-8-7-17(23)10-20(18)24/h2-8,10,14-15,29H,1,9,11-13H2

> <PUBCHEM_IUPAC_INCHIKEY>
MYFZQQJPXAXSLS-UHFFFAOYSA-N

> <PUBCHEM_XLOGP3_AA>
3.6

> <PUBCHEM_EXACT_MASS>
418.1371953

> <PUBCHEM_MOLECULAR_FORMULA>
C21H21ClF2N4O

> <PUBCHEM_MOLECULAR_WEIGHT>
418.9

> <PUBCHEM_OPENEYE_CAN_SMILES>
C=CCN(CC1=CC=CC=C1Cl)CC(CN2C=NC=N2)(C3=C(C=C(C=C3)F)F)O

> <PUBCHEM_OPENEYE_ISO_SMILES>
C=CCN(CC1=CC=CC=C1Cl)CC(CN2C=NC=N2)(C3=C(C=C(C=C3)F)F)O

> <PUBCHEM_CACTVS_TPSA>
54.2

> <PUBCHEM_MONOISOTOPIC_WEIGHT>
418.1371953

> <PUBCHEM_TOTAL_CHARGE>
0

> <PUBCHEM_HEAVY_ATOM_COUNT>
29

> <PUBCHEM_ATOM_DEF_STEREO_COUNT>
0

> <PUBCHEM_ATOM_UDEF_STEREO_COUNT>
1

> <PUBCHEM_BOND_DEF_STEREO_COUNT>
0

> <PUBCHEM_BOND_UDEF_STEREO_COUNT>
0

> <PUBCHEM_ISOTOPIC_ATOM_COUNT>
0

> <PUBCHEM_COMPONENT_COUNT>
1

> <PUBCHEM_CACTVS_TAUTO_COUNT>
-1

> <PUBCHEM_COORDINATE_TYPE>
1
5
255

> <PUBCHEM_BONDANNOTATIONS>
12  15  8
12  16  8
15  19  8
16  20  8
17  23  8
17  24  8
19  22  8
20  22  8
23  26  8
24  27  8
26  29  8
27  29  8
9  4  3
6  21  8
6  7  8
7  25  8
8  21  8
8  25  8

$$$$
42631374
  -OEChem-09182107372D

 53 55  0     1  0  0  0  0  0999 V2000
    3.7320   -1.2500    0.0000 F   0  0  0  0  0  0  0  0  0  0  0  0
    5.4641   -4.2500    0.0000 F   0  0  0  0  0  0  0  0  0  0  0  0
    4.4641   -0.2500    0.0000 O   0  0  0  0  0  0  0  0  0  0  0  0
    4.5981    1.2500    0.0000 N   0  0  3  0  0  0  0  0  0  0  0  0
    6.9641    0.6160    0.0000 N   0  0  0  0  0  0  0  0  0  0  0  0
    7.9586    0.7206    0.0000 N   0  0  0  0  0  0  0  0  0  0  0  0
    7.3005    2.1987    0.0000 N   0  0  0  0  0  0  0  0  0  0  0  0
    5.4641   -0.2500    0.0000 C   0  0  3  0  0  0  0  0  0  0  0  0
    5.4641    0.7500    0.0000 C   0  0  0  0  0  0  0  0  0  0  0  0
    6.4641   -0.2500    0.0000 C   0  0  0  0  0  0  0  0  0  0  0  0
    5.4641   -1.2500    0.0000 C   0  0  0  0  0  0  0  0  0  0  0  0
    4.5981    2.2500    0.0000 C   0  0  0  0  0  0  0  0  0  0  0  0
    3.7320    0.7500    0.0000 C   0  0  0  0  0  0  0  0  0  0  0  0
    3.7320    2.7500    0.0000 C   0  0  0  0  0  0  0  0  0  0  0  0
    4.5981   -1.7500    0.0000 C   0  0  0  0  0  0  0  0  0  0  0  0
    6.3301   -1.7500    0.0000 C   0  0  0  0  0  0  0  0  0  0  0  0
    3.7320    3.7500    0.0000 C   0  0  0  0  0  0  0  0  0  0  0  0
    2.8660    1.2500    0.0000 C   0  0  0  0  0  0  0  0  0  0  0  0
    4.5981   -2.7500    0.0000 C   0  0  0  0  0  0  0  0  0  0  0  0
    6.3301   -2.7500    0.0000 C   0  0  0  0  0  0  0  0  0  0  0  0
    2.8660    2.2500    0.0000 C   0  0  0  0  0  0  0  0  0  0  0  0
    6.5574    1.5296    0.0000 C   0  0  0  0  0  0  0  0  0  0  0  0
    5.4641   -3.2500    0.0000 C   0  0  0  0  0  0  0  0  0  0  0  0
    2.8660    4.2500    0.0000 C   0  0  0  0  0  0  0  0  0  0  0  0
    4.5981    4.2500    0.0000 C   0  0  0  0  0  0  0  0  0  0  0  0
    2.0000    2.7500    0.0000 C   0  0  0  0  0  0  0  0  0  0  0  0
    2.0000    3.7500    0.0000 C   0  0  0  0  0  0  0  0  0  0  0  0
    8.1665    1.6987    0.0000 C   0  0  0  0  0  0  0  0  0  0  0  0
    2.0000    0.7500    0.0000 C   0  0  0  0  0  0  0  0  0  0  0  0
    6.0747    0.6423    0.0000 H   0  0  0  0  0  0  0  0  0  0  0  0
    5.6762    1.3326    0.0000 H   0  0  0  0  0  0  0  0  0  0  0  0
    6.3564   -0.8606    0.0000 H   0  0  0  0  0  0  0  0  0  0  0  0
    7.0467   -0.4621    0.0000 H   0  0  0  0  0  0  0  0  0  0  0  0
    5.2087    2.1423    0.0000 H   0  0  0  0  0  0  0  0  0  0  0  0
    4.8101    2.8326    0.0000 H   0  0  0  0  0  0  0  0  0  0  0  0
    3.3335    0.2751    0.0000 H   0  0  0  0  0  0  0  0  0  0  0  0
    4.1306    0.2751    0.0000 H   0  0  0  0  0  0  0  0  0  0  0  0
    4.1541    0.2869    0.0000 H   0  0  0  0  0  0  0  0  0  0  0  0
    6.8671   -1.4400    0.0000 H   0  0  0  0  0  0  0  0  0  0  0  0
    2.8660    1.8700    0.0000 H   0  0  0  0  0  0  0  0  0  0  0  0
    4.0611   -3.0600    0.0000 H   0  0  0  0  0  0  0  0  0  0  0  0
    6.8671   -3.0600    0.0000 H   0  0  0  0  0  0  0  0  0  0  0  0
    2.8660    1.6300    0.0000 H   0  0  0  0  0  0  0  0  0  0  0  0
    5.9509    1.6585    0.0000 H   0  0  0  0  0  0  0  0  0  0  0  0
    2.8660    4.8700    0.0000 H   0  0  0  0  0  0  0  0  0  0  0  0
    4.9081    3.7131    0.0000 H   0  0  0  0  0  0  0  0  0  0  0  0
    5.1350    4.5600    0.0000 H   0  0  0  0  0  0  0  0  0  0  0  0
    4.2881    4.7869    0.0000 H   0  0  0  0  0  0  0  0  0  0  0  0
    1.4631    2.4400    0.0000 H   0  0  0  0  0  0  0  0  0  0  0  0
    1.4631    4.0600    0.0000 H   0  0  0  0  0  0  0  0  0  0  0  0
    8.7329    1.9509    0.0000 H   0  0  0  0  0  0  0  0  0  0  0  0
    1.4631    1.0600    0.0000 H   0  0  0  0  0  0  0  0  0  0  0  0
    2.0000    0.1300    0.0000 H   0  0  0  0  0  0  0  0  0  0  0  0
  1 15  1  0  0  0  0
  2 23  1  0  0  0  0
  3  8  1  0  0  0  0
  3 38  1  0  0  0  0
  4  9  1  0  0  0  0
  4 12  1  0  0  0  0
  4 13  1  0  0  0  0
  5  6  1  0  0  0  0
  5 10  1  0  0  0  0
  5 22  1  0  0  0  0
  6 28  2  0  0  0  0
  7 22  2  0  0  0  0
  7 28  1  0  0  0  0
  8  9  1  0  0  0  0
  8 10  1  0  0  0  0
  8 11  1  0  0  0  0
  9 30  1  0  0  0  0
  9 31  1  0  0  0  0
 10 32  1  0  0  0  0
 10 33  1  0  0  0  0
 11 15  2  0  0  0  0
 11 16  1  0  0  0  0
 12 14  1  0  0  0  0
 12 34  1  0  0  0  0
 12 35  1  0  0  0  0
 13 18  1  0  0  0  0
 13 36  1  0  0  0  0
 13 37  1  0  0  0  0
 14 17  1  0  0  0  0
 14 21  2  0  0  0  0
 15 19  1  0  0  0  0
 16 20  2  0  0  0  0
 16 39  1  0  0  0  0
 17 24  2  0  0  0  0
 17 25  1  0  0  0  0
 18 29  2  0  0  0  0
 18 40  1  0  0  0  0
 19 23  2  0  0  0  0
 19 41  1  0  0  0  0
 20 23  1  0  0  0  0
 20 42  1  0  0  0  0
 21 26  1  0  0  0  0
 21 43  1  0  0  0  0
 22 44  1  0  0  0  0
 24 27  1  0  0  0  0
 24 45  1  0  0  0  0
 25 46  1  0  0  0  0
 25 47  1  0  0  0  0
 25 48  1  0  0  0  0
 26 27  2  0  0  0  0
 26 49  1  0  0  0  0
 27 50  1  0  0  0  0
 28 51  1  0  0  0  0
 29 52  1  0  0  0  0
 29 53  1  0  0  0  0
M  END
> <PUBCHEM_COMPOUND_CID>
42631374

> <PUBCHEM_COMPOUND_CANONICALIZED>
1

> <PUBCHEM_CACTVS_COMPLEXITY>
525

> <PUBCHEM_CACTVS_HBOND_ACCEPTOR>
6

> <PUBCHEM_CACTVS_HBOND_DONOR>
1

> <PUBCHEM_CACTVS_ROTATABLE_BOND>
9

> <PUBCHEM_CACTVS_SUBSKEYS>
AAADceB7oYAAAAAAAAAAAAAAAAAAAWAAAAAwYAAAAAAAAAAB0AAAHwAICAAADETBmAw3EIcIEgCiAiBDJACSAAswgIAdyAAIDIiKLiKA2RGEcAhswAOYmAeQwOAOgAAAAAAQAAAAAAAAACAAAAAAAAAAAA==

> <PUBCHEM_IUPAC_OPENEYE_NAME>
1-[allyl(o-tolylmethyl)amino]-2-(2,4-difluorophenyl)-3-(1,2,4-triazol-1-yl)propan-2-ol

> <PUBCHEM_IUPAC_CAS_NAME>
2-(2,4-difluorophenyl)-1-[(2-methylphenyl)methyl-prop-2-enylamino]-3-(1,2,4-triazol-1-yl)-2-propanol

> <PUBCHEM_IUPAC_NAME_MARKUP>
2-(2,4-difluorophenyl)-1-[(2-methylphenyl)methyl-prop-2-enylamino]-3-(1,2,4-triazol-1-yl)propan-2-ol

> <PUBCHEM_IUPAC_NAME>
2-(2,4-difluorophenyl)-1-[(2-methylphenyl)methyl-prop-2-enylamino]-3-(1,2,4-triazol-1-yl)propan-2-ol

> <PUBCHEM_IUPAC_SYSTEMATIC_NAME>
2-[2,4-bis(fluoranyl)phenyl]-1-[(2-methylphenyl)methyl-prop-2-enyl-amino]-3-(1,2,4-triazol-1-yl)propan-2-ol

> <PUBCHEM_IUPAC_TRADITIONAL_NAME>
1-[allyl-(2-methylbenzyl)amino]-2-(2,4-difluorophenyl)-3-(1,2,4-triazol-1-yl)propan-2-ol

> <PUBCHEM_IUPAC_INCHI>
InChI=1S/C22H24F2N4O/c1-3-10-27(12-18-7-5-4-6-17(18)2)13-22(29,14-28-16-25-15-26-28)20-9-8-19(23)11-21(20)24/h3-9,11,15-16,29H,1,10,12-14H2,2H3

> <PUBCHEM_IUPAC_INCHIKEY>
IFHXLUHDEQRUES-UHFFFAOYSA-N

> <PUBCHEM_XLOGP3_AA>
3.3

> <PUBCHEM_EXACT_MASS>
398.19181773

> <PUBCHEM_MOLECULAR_FORMULA>
C22H24F2N4O

> <PUBCHEM_MOLECULAR_WEIGHT>
398.4

> <PUBCHEM_OPENEYE_CAN_SMILES>
CC1=CC=CC=C1CN(CC=C)CC(CN2C=NC=N2)(C3=C(C=C(C=C3)F)F)O

> <PUBCHEM_OPENEYE_ISO_SMILES>
CC1=CC=CC=C1CN(CC=C)CC(CN2C=NC=N2)(C3=C(C=C(C=C3)F)F)O

> <PUBCHEM_CACTVS_TPSA>
54.2

> <PUBCHEM_MONOISOTOPIC_WEIGHT>
398.19181773

> <PUBCHEM_TOTAL_CHARGE>
0

> <PUBCHEM_HEAVY_ATOM_COUNT>
29

> <PUBCHEM_ATOM_DEF_STEREO_COUNT>
0

> <PUBCHEM_ATOM_UDEF_STEREO_COUNT>
1

> <PUBCHEM_BOND_DEF_STEREO_COUNT>
0

> <PUBCHEM_BOND_UDEF_STEREO_COUNT>
0

> <PUBCHEM_ISOTOPIC_ATOM_COUNT>
0

> <PUBCHEM_COMPONENT_COUNT>
1

> <PUBCHEM_CACTVS_TAUTO_COUNT>
-1

> <PUBCHEM_COORDINATE_TYPE>
1
5
255

> <PUBCHEM_BONDANNOTATIONS>
11  15  8
11  16  8
14  17  8
14  21  8
15  19  8
16  20  8
17  24  8
19  23  8
20  23  8
21  26  8
24  27  8
26  27  8
8  3  3
5  22  8
5  6  8
6  28  8
7  22  8
7  28  8

$$$$
42631259
  -OEChem-09182107372D

 50 52  0     1  0  0  0  0  0999 V2000
    3.7320   -1.2500    0.0000 F   0  0  0  0  0  0  0  0  0  0  0  0
    5.4641   -4.2500    0.0000 F   0  0  0  0  0  0  0  0  0  0  0  0
    4.5981    4.2500    0.0000 F   0  0  0  0  0  0  0  0  0  0  0  0
    4.4641   -0.2500    0.0000 O   0  0  0  0  0  0  0  0  0  0  0  0
    4.5981    1.2500    0.0000 N   0  0  3  0  0  0  0  0  0  0  0  0
    6.9641    0.6160    0.0000 N   0  0  0  0  0  0  0  0  0  0  0  0
    7.9586    0.7206    0.0000 N   0  0  0  0  0  0  0  0  0  0  0  0
    7.3005    2.1987    0.0000 N   0  0  0  0  0  0  0  0  0  0  0  0
    5.4641   -0.2500    0.0000 C   0  0  3  0  0  0  0  0  0  0  0  0
    5.4641    0.7500    0.0000 C   0  0  0  0  0  0  0  0  0  0  0  0
    6.4641   -0.2500    0.0000 C   0  0  0  0  0  0  0  0  0  0  0  0
    5.4641   -1.2500    0.0000 C   0  0  0  0  0  0  0  0  0  0  0  0
    4.5981    2.2500    0.0000 C   0  0  0  0  0  0  0  0  0  0  0  0
    3.7320    0.7500    0.0000 C   0  0  0  0  0  0  0  0  0  0  0  0
    4.5981   -1.7500    0.0000 C   0  0  0  0  0  0  0  0  0  0  0  0
    6.3301   -1.7500    0.0000 C   0  0  0  0  0  0  0  0  0  0  0  0
    3.7320    2.7500    0.0000 C   0  0  0  0  0  0  0  0  0  0  0  0
    2.8660    1.2500    0.0000 C   0  0  0  0  0  0  0  0  0  0  0  0
    4.5981   -2.7500    0.0000 C   0  0  0  0  0  0  0  0  0  0  0  0
    6.3301   -2.7500    0.0000 C   0  0  0  0  0  0  0  0  0  0  0  0
    6.5574    1.5296    0.0000 C   0  0  0  0  0  0  0  0  0  0  0  0
    5.4641   -3.2500    0.0000 C   0  0  0  0  0  0  0  0  0  0  0  0
    3.7320    3.7500    0.0000 C   0  0  0  0  0  0  0  0  0  0  0  0
    2.8660    2.2500    0.0000 C   0  0  0  0  0  0  0  0  0  0  0  0
    8.1665    1.6987    0.0000 C   0  0  0  0  0  0  0  0  0  0  0  0
    2.8660    4.2500    0.0000 C   0  0  0  0  0  0  0  0  0  0  0  0
    2.0000    2.7500    0.0000 C   0  0  0  0  0  0  0  0  0  0  0  0
    2.0000    0.7500    0.0000 C   0  0  0  0  0  0  0  0  0  0  0  0
    2.0000    3.7500    0.0000 C   0  0  0  0  0  0  0  0  0  0  0  0
    6.0747    0.6423    0.0000 H   0  0  0  0  0  0  0  0  0  0  0  0
    5.6762    1.3326    0.0000 H   0  0  0  0  0  0  0  0  0  0  0  0
    6.3564   -0.8606    0.0000 H   0  0  0  0  0  0  0  0  0  0  0  0
    7.0467   -0.4621    0.0000 H   0  0  0  0  0  0  0  0  0  0  0  0
    5.2087    2.1423    0.0000 H   0  0  0  0  0  0  0  0  0  0  0  0
    4.8101    2.8326    0.0000 H   0  0  0  0  0  0  0  0  0  0  0  0
    3.3335    0.2751    0.0000 H   0  0  0  0  0  0  0  0  0  0  0  0
    4.1306    0.2751    0.0000 H   0  0  0  0  0  0  0  0  0  0  0  0
    4.1541    0.2869    0.0000 H   0  0  0  0  0  0  0  0  0  0  0  0
    6.8671   -1.4400    0.0000 H   0  0  0  0  0  0  0  0  0  0  0  0
    2.8660    1.8700    0.0000 H   0  0  0  0  0  0  0  0  0  0  0  0
    4.0611   -3.0600    0.0000 H   0  0  0  0  0  0  0  0  0  0  0  0
    6.8671   -3.0600    0.0000 H   0  0  0  0  0  0  0  0  0  0  0  0
    5.9509    1.6585    0.0000 H   0  0  0  0  0  0  0  0  0  0  0  0
    2.8660    1.6300    0.0000 H   0  0  0  0  0  0  0  0  0  0  0  0
    8.7329    1.9509    0.0000 H   0  0  0  0  0  0  0  0  0  0  0  0
    2.8660    4.8700    0.0000 H   0  0  0  0  0  0  0  0  0  0  0  0
    1.4631    2.4400    0.0000 H   0  0  0  0  0  0  0  0  0  0  0  0
    1.4631    1.0600    0.0000 H   0  0  0  0  0  0  0  0  0  0  0  0
    2.0000    0.1300    0.0000 H   0  0  0  0  0  0  0  0  0  0  0  0
    1.4631    4.0600    0.0000 H   0  0  0  0  0  0  0  0  0  0  0  0
  1 15  1  0  0  0  0
  2 22  1  0  0  0  0
  3 23  1  0  0  0  0
  4  9  1  0  0  0  0
  4 38  1  0  0  0  0
  5 10  1  0  0  0  0
  5 13  1  0  0  0  0
  5 14  1  0  0  0  0
  6  7  1  0  0  0  0
  6 11  1  0  0  0  0
  6 21  1  0  0  0  0
  7 25  2  0  0  0  0
  8 21  2  0  0  0  0
  8 25  1  0  0  0  0
  9 10  1  0  0  0  0
  9 11  1  0  0  0  0
  9 12  1  0  0  0  0
 10 30  1  0  0  0  0
 10 31  1  0  0  0  0
 11 32  1  0  0  0  0
 11 33  1  0  0  0  0
 12 15  2  0  0  0  0
 12 16  1  0  0  0  0
 13 17  1  0  0  0  0
 13 34  1  0  0  0  0
 13 35  1  0  0  0  0
 14 18  1  0  0  0  0
 14 36  1  0  0  0  0
 14 37  1  0  0  0  0
 15 19  1  0  0  0  0
 16 20  2  0  0  0  0
 16 39  1  0  0  0  0
 17 23  1  0  0  0  0
 17 24  2  0  0  0  0
 18 28  2  0  0  0  0
 18 40  1  0  0  0  0
 19 22  2  0  0  0  0
 19 41  1  0  0  0  0
 20 22  1  0  0  0  0
 20 42  1  0  0  0  0
 21 43  1  0  0  0  0
 23 26  2  0  0  0  0
 24 27  1  0  0  0  0
 24 44  1  0  0  0  0
 25 45  1  0  0  0  0
 26 29  1  0  0  0  0
 26 46  1  0  0  0  0
 27 29  2  0  0  0  0
 27 47  1  0  0  0  0
 28 48  1  0  0  0  0
 28 49  1  0  0  0  0
 29 50  1  0  0  0  0
M  END
> <PUBCHEM_COMPOUND_CID>
42631259

> <PUBCHEM_COMPOUND_CANONICALIZED>
1

> <PUBCHEM_CACTVS_COMPLEXITY>
528

> <PUBCHEM_CACTVS_HBOND_ACCEPTOR>
7

> <PUBCHEM_CACTVS_HBOND_DONOR>
1

> <PUBCHEM_CACTVS_ROTATABLE_BOND>
9

> <PUBCHEM_CACTVS_SUBSKEYS>
AAADceB7oYAAAAAAAAAAAAAAAAAAAWAAAAAwYAAAAAAAAAAB0AAAHwAICAAADETBmAw1EIcIEgCiAiBDJACSAAswgIAdyAAIDIiKLiKA2RGEcAhswAOYmAeQwOAOgAAAAAAAAAAAAAAAAAAAAAAAAAAAAA==

> <PUBCHEM_IUPAC_OPENEYE_NAME>
1-[allyl-[(2-fluorophenyl)methyl]amino]-2-(2,4-difluorophenyl)-3-(1,2,4-triazol-1-yl)propan-2-ol

> <PUBCHEM_IUPAC_CAS_NAME>
2-(2,4-difluorophenyl)-1-[(2-fluorophenyl)methyl-prop-2-enylamino]-3-(1,2,4-triazol-1-yl)-2-propanol

> <PUBCHEM_IUPAC_NAME_MARKUP>
2-(2,4-difluorophenyl)-1-[(2-fluorophenyl)methyl-prop-2-enylamino]-3-(1,2,4-triazol-1-yl)propan-2-ol

> <PUBCHEM_IUPAC_NAME>
2-(2,4-difluorophenyl)-1-[(2-fluorophenyl)methyl-prop-2-enylamino]-3-(1,2,4-triazol-1-yl)propan-2-ol

> <PUBCHEM_IUPAC_SYSTEMATIC_NAME>
2-[2,4-bis(fluoranyl)phenyl]-1-[(2-fluorophenyl)methyl-prop-2-enyl-amino]-3-(1,2,4-triazol-1-yl)propan-2-ol

> <PUBCHEM_IUPAC_TRADITIONAL_NAME>
1-[allyl-(2-fluorobenzyl)amino]-2-(2,4-difluorophenyl)-3-(1,2,4-triazol-1-yl)propan-2-ol

> <PUBCHEM_IUPAC_INCHI>
InChI=1S/C21H21F3N4O/c1-2-9-27(11-16-5-3-4-6-19(16)23)12-21(29,13-28-15-25-14-26-28)18-8-7-17(22)10-20(18)24/h2-8,10,14-15,29H,1,9,11-13H2

> <PUBCHEM_IUPAC_INCHIKEY>
KYEYNJPZPOQCKF-UHFFFAOYSA-N

> <PUBCHEM_XLOGP3_AA>
3.1

> <PUBCHEM_EXACT_MASS>
402.16674579

> <PUBCHEM_MOLECULAR_FORMULA>
C21H21F3N4O

> <PUBCHEM_MOLECULAR_WEIGHT>
402.4

> <PUBCHEM_OPENEYE_CAN_SMILES>
C=CCN(CC1=CC=CC=C1F)CC(CN2C=NC=N2)(C3=C(C=C(C=C3)F)F)O

> <PUBCHEM_OPENEYE_ISO_SMILES>
C=CCN(CC1=CC=CC=C1F)CC(CN2C=NC=N2)(C3=C(C=C(C=C3)F)F)O

> <PUBCHEM_CACTVS_TPSA>
54.2

> <PUBCHEM_MONOISOTOPIC_WEIGHT>
402.16674579

> <PUBCHEM_TOTAL_CHARGE>
0

> <PUBCHEM_HEAVY_ATOM_COUNT>
29

> <PUBCHEM_ATOM_DEF_STEREO_COUNT>
0

> <PUBCHEM_ATOM_UDEF_STEREO_COUNT>
1

> <PUBCHEM_BOND_DEF_STEREO_COUNT>
0

> <PUBCHEM_BOND_UDEF_STEREO_COUNT>
0

> <PUBCHEM_ISOTOPIC_ATOM_COUNT>
0

> <PUBCHEM_COMPONENT_COUNT>
1

> <PUBCHEM_CACTVS_TAUTO_COUNT>
-1

> <PUBCHEM_COORDINATE_TYPE>
1
5
255

> <PUBCHEM_BONDANNOTATIONS>
12  15  8
12  16  8
15  19  8
16  20  8
17  23  8
17  24  8
19  22  8
20  22  8
23  26  8
24  27  8
26  29  8
27  29  8
9  4  3
6  21  8
6  7  8
7  25  8
8  21  8
8  25  8

$$$$
42631371
  -OEChem-09182107372D

 50 52  0     1  0  0  0  0  0999 V2000
    2.0000    4.2500    0.0000 Cl  0  0  0  0  0  0  0  0  0  0  0  0
    4.5981   -1.2500    0.0000 F   0  0  0  0  0  0  0  0  0  0  0  0
    6.3301   -4.2500    0.0000 F   0  0  0  0  0  0  0  0  0  0  0  0
    5.3301   -0.2500    0.0000 O   0  0  0  0  0  0  0  0  0  0  0  0
    5.4641    1.2500    0.0000 N   0  0  3  0  0  0  0  0  0  0  0  0
    7.8301    0.6160    0.0000 N   0  0  0  0  0  0  0  0  0  0  0  0
    8.8246    0.7206    0.0000 N   0  0  0  0  0  0  0  0  0  0  0  0
    8.1665    2.1987    0.0000 N   0  0  0  0  0  0  0  0  0  0  0  0
    6.3301   -0.2500    0.0000 C   0  0  3  0  0  0  0  0  0  0  0  0
    6.3301    0.7500    0.0000 C   0  0  0  0  0  0  0  0  0  0  0  0
    7.3301   -0.2500    0.0000 C   0  0  0  0  0  0  0  0  0  0  0  0
    6.3301   -1.2500    0.0000 C   0  0  0  0  0  0  0  0  0  0  0  0
    5.4641    2.2500    0.0000 C   0  0  0  0  0  0  0  0  0  0  0  0
    4.5981    0.7500    0.0000 C   0  0  0  0  0  0  0  0  0  0  0  0
    5.4641   -1.7500    0.0000 C   0  0  0  0  0  0  0  0  0  0  0  0
    7.1962   -1.7500    0.0000 C   0  0  0  0  0  0  0  0  0  0  0  0
    4.5981    2.7500    0.0000 C   0  0  0  0  0  0  0  0  0  0  0  0
    3.7320    1.2500    0.0000 C   0  0  0  0  0  0  0  0  0  0  0  0
    5.4641   -2.7500    0.0000 C   0  0  0  0  0  0  0  0  0  0  0  0
    7.1962   -2.7500    0.0000 C   0  0  0  0  0  0  0  0  0  0  0  0
    7.4234    1.5296    0.0000 C   0  0  0  0  0  0  0  0  0  0  0  0
    6.3301   -3.2500    0.0000 C   0  0  0  0  0  0  0  0  0  0  0  0
    3.7320    2.2500    0.0000 C   0  0  0  0  0  0  0  0  0  0  0  0
    4.5981    3.7500    0.0000 C   0  0  0  0  0  0  0  0  0  0  0  0
    9.0326    1.6987    0.0000 C   0  0  0  0  0  0  0  0  0  0  0  0
    2.8660    2.7500    0.0000 C   0  0  0  0  0  0  0  0  0  0  0  0
    3.7320    4.2500    0.0000 C   0  0  0  0  0  0  0  0  0  0  0  0
    2.8660    0.7500    0.0000 C   0  0  0  0  0  0  0  0  0  0  0  0
    2.8660    3.7500    0.0000 C   0  0  0  0  0  0  0  0  0  0  0  0
    6.9407    0.6423    0.0000 H   0  0  0  0  0  0  0  0  0  0  0  0
    6.5422    1.3326    0.0000 H   0  0  0  0  0  0  0  0  0  0  0  0
    7.2225   -0.8606    0.0000 H   0  0  0  0  0  0  0  0  0  0  0  0
    7.9127   -0.4621    0.0000 H   0  0  0  0  0  0  0  0  0  0  0  0
    6.0747    2.1423    0.0000 H   0  0  0  0  0  0  0  0  0  0  0  0
    5.6762    2.8326    0.0000 H   0  0  0  0  0  0  0  0  0  0  0  0
    4.1996    0.2751    0.0000 H   0  0  0  0  0  0  0  0  0  0  0  0
    4.9966    0.2751    0.0000 H   0  0  0  0  0  0  0  0  0  0  0  0
    5.0201    0.2869    0.0000 H   0  0  0  0  0  0  0  0  0  0  0  0
    7.7331   -1.4400    0.0000 H   0  0  0  0  0  0  0  0  0  0  0  0
    3.7320    1.8700    0.0000 H   0  0  0  0  0  0  0  0  0  0  0  0
    4.9272   -3.0600    0.0000 H   0  0  0  0  0  0  0  0  0  0  0  0
    7.7331   -3.0600    0.0000 H   0  0  0  0  0  0  0  0  0  0  0  0
    6.8169    1.6585    0.0000 H   0  0  0  0  0  0  0  0  0  0  0  0
    3.7320    1.6300    0.0000 H   0  0  0  0  0  0  0  0  0  0  0  0
    5.1350    4.0600    0.0000 H   0  0  0  0  0  0  0  0  0  0  0  0
    9.5990    1.9509    0.0000 H   0  0  0  0  0  0  0  0  0  0  0  0
    2.3291    2.4400    0.0000 H   0  0  0  0  0  0  0  0  0  0  0  0
    3.7320    4.8700    0.0000 H   0  0  0  0  0  0  0  0  0  0  0  0
    2.3291    1.0600    0.0000 H   0  0  0  0  0  0  0  0  0  0  0  0
    2.8660    0.1300    0.0000 H   0  0  0  0  0  0  0  0  0  0  0  0
  1 29  1  0  0  0  0
  2 15  1  0  0  0  0
  3 22  1  0  0  0  0
  4  9  1  0  0  0  0
  4 38  1  0  0  0  0
  5 10  1  0  0  0  0
  5 13  1  0  0  0  0
  5 14  1  0  0  0  0
  6  7  1  0  0  0  0
  6 11  1  0  0  0  0
  6 21  1  0  0  0  0
  7 25  2  0  0  0  0
  8 21  2  0  0  0  0
  8 25  1  0  0  0  0
  9 10  1  0  0  0  0
  9 11  1  0  0  0  0
  9 12  1  0  0  0  0
 10 30  1  0  0  0  0
 10 31  1  0  0  0  0
 11 32  1  0  0  0  0
 11 33  1  0  0  0  0
 12 15  2  0  0  0  0
 12 16  1  0  0  0  0
 13 17  1  0  0  0  0
 13 34  1  0  0  0  0
 13 35  1  0  0  0  0
 14 18  1  0  0  0  0
 14 36  1  0  0  0  0
 14 37  1  0  0  0  0
 15 19  1  0  0  0  0
 16 20  2  0  0  0  0
 16 39  1  0  0  0  0
 17 23  2  0  0  0  0
 17 24  1  0  0  0  0
 18 28  2  0  0  0  0
 18 40  1  0  0  0  0
 19 22  2  0  0  0  0
 19 41  1  0  0  0  0
 20 22  1  0  0  0  0
 20 42  1  0  0  0  0
 21 43  1  0  0  0  0
 23 26  1  0  0  0  0
 23 44  1  0  0  0  0
 24 27  2  0  0  0  0
 24 45  1  0  0  0  0
 25 46  1  0  0  0  0
 26 29  2  0  0  0  0
 26 47  1  0  0  0  0
 27 29  1  0  0  0  0
 27 48  1  0  0  0  0
 28 49  1  0  0  0  0
 28 50  1  0  0  0  0
M  END
> <PUBCHEM_COMPOUND_CID>
42631371

> <PUBCHEM_COMPOUND_CANONICALIZED>
1

> <PUBCHEM_CACTVS_COMPLEXITY>
523

> <PUBCHEM_CACTVS_HBOND_ACCEPTOR>
6

> <PUBCHEM_CACTVS_HBOND_DONOR>
1

> <PUBCHEM_CACTVS_ROTATABLE_BOND>
9

> <PUBCHEM_CACTVS_SUBSKEYS>
AAADceB7oYAEAAAAAAAAAAAAAAAAAWAAAAAwYAAAAAAAAAAB0AAAHwIICAAADEbBmCw1EIcIEgCiAiBDJACSAAswhYAdyAAIDoiKLiKB2xGEcAhswAOYmAeQwOAOhAAAAAAAAAAIAAAAAAAAAAAAAAAAAA==

> <PUBCHEM_IUPAC_OPENEYE_NAME>
1-[allyl-[(4-chlorophenyl)methyl]amino]-2-(2,4-difluorophenyl)-3-(1,2,4-triazol-1-yl)propan-2-ol

> <PUBCHEM_IUPAC_CAS_NAME>
1-[(4-chlorophenyl)methyl-prop-2-enylamino]-2-(2,4-difluorophenyl)-3-(1,2,4-triazol-1-yl)-2-propanol

> <PUBCHEM_IUPAC_NAME_MARKUP>
1-[(4-chlorophenyl)methyl-prop-2-enylamino]-2-(2,4-difluorophenyl)-3-(1,2,4-triazol-1-yl)propan-2-ol

> <PUBCHEM_IUPAC_NAME>
1-[(4-chlorophenyl)methyl-prop-2-enylamino]-2-(2,4-difluorophenyl)-3-(1,2,4-triazol-1-yl)propan-2-ol

> <PUBCHEM_IUPAC_SYSTEMATIC_NAME>
2-[2,4-bis(fluoranyl)phenyl]-1-[(4-chlorophenyl)methyl-prop-2-enyl-amino]-3-(1,2,4-triazol-1-yl)propan-2-ol

> <PUBCHEM_IUPAC_TRADITIONAL_NAME>
1-[allyl-(4-chlorobenzyl)amino]-2-(2,4-difluorophenyl)-3-(1,2,4-triazol-1-yl)propan-2-ol

> <PUBCHEM_IUPAC_INCHI>
InChI=1S/C21H21ClF2N4O/c1-2-9-27(11-16-3-5-17(22)6-4-16)12-21(29,13-28-15-25-14-26-28)19-8-7-18(23)10-20(19)24/h2-8,10,14-15,29H,1,9,11-13H2

> <PUBCHEM_IUPAC_INCHIKEY>
YOHMEQIQDMTLOA-UHFFFAOYSA-N

> <PUBCHEM_XLOGP3_AA>
3.6

> <PUBCHEM_EXACT_MASS>
418.1371953

> <PUBCHEM_MOLECULAR_FORMULA>
C21H21ClF2N4O

> <PUBCHEM_MOLECULAR_WEIGHT>
418.9

> <PUBCHEM_OPENEYE_CAN_SMILES>
C=CCN(CC1=CC=C(C=C1)Cl)CC(CN2C=NC=N2)(C3=C(C=C(C=C3)F)F)O

> <PUBCHEM_OPENEYE_ISO_SMILES>
C=CCN(CC1=CC=C(C=C1)Cl)CC(CN2C=NC=N2)(C3=C(C=C(C=C3)F)F)O

> <PUBCHEM_CACTVS_TPSA>
54.2

> <PUBCHEM_MONOISOTOPIC_WEIGHT>
418.1371953

> <PUBCHEM_TOTAL_CHARGE>
0

> <PUBCHEM_HEAVY_ATOM_COUNT>
29

> <PUBCHEM_ATOM_DEF_STEREO_COUNT>
0

> <PUBCHEM_ATOM_UDEF_STEREO_COUNT>
1

> <PUBCHEM_BOND_DEF_STEREO_COUNT>
0

> <PUBCHEM_BOND_UDEF_STEREO_COUNT>
0

> <PUBCHEM_ISOTOPIC_ATOM_COUNT>
0

> <PUBCHEM_COMPONENT_COUNT>
1

> <PUBCHEM_CACTVS_TAUTO_COUNT>
-1

> <PUBCHEM_COORDINATE_TYPE>
1
5
255

> <PUBCHEM_BONDANNOTATIONS>
12  15  8
12  16  8
15  19  8
16  20  8
17  23  8
17  24  8
19  22  8
20  22  8
23  26  8
24  27  8
26  29  8
27  29  8
9  4  3
6  21  8
6  7  8
7  25  8
8  21  8
8  25  8

$$$$
338037
  -OEChem-09182107372D

 20 21  0     0  0  0  0  0  0999 V2000
    3.2601    2.2694    0.0000 S   0  0  0  0  0  0  0  0  0  0  0  0
    4.5691    1.3184    0.0000 N   0  0  0  0  0  0  0  0  0  0  0  0
    4.2601    2.2694    0.0000 N   0  0  0  0  0  0  0  0  0  0  0  0
    3.7601   -0.2694    0.0000 C   0  0  0  0  0  0  0  0  0  0  0  0
    3.7601    0.7306    0.0000 C   0  0  0  0  0  0  0  0  0  0  0  0
    2.9511    1.3184    0.0000 C   0  0  0  0  0  0  0  0  0  0  0  0
    4.6261   -0.7694    0.0000 C   0  0  0  0  0  0  0  0  0  0  0  0
    2.8940   -0.7694    0.0000 C   0  0  0  0  0  0  0  0  0  0  0  0
    2.0000    1.0094    0.0000 C   0  0  0  0  0  0  0  0  0  0  0  0
    4.6261   -1.7694    0.0000 C   0  0  0  0  0  0  0  0  0  0  0  0
    2.8940   -1.7694    0.0000 C   0  0  0  0  0  0  0  0  0  0  0  0
    3.7601   -2.2694    0.0000 C   0  0  0  0  0  0  0  0  0  0  0  0
    5.1630   -0.4594    0.0000 H   0  0  0  0  0  0  0  0  0  0  0  0
    2.3571   -0.4594    0.0000 H   0  0  0  0  0  0  0  0  0  0  0  0
    1.8084    1.5990    0.0000 H   0  0  0  0  0  0  0  0  0  0  0  0
    1.4103    0.8178    0.0000 H   0  0  0  0  0  0  0  0  0  0  0  0
    2.1916    0.4197    0.0000 H   0  0  0  0  0  0  0  0  0  0  0  0
    5.1630   -2.0794    0.0000 H   0  0  0  0  0  0  0  0  0  0  0  0
    2.3571   -2.0794    0.0000 H   0  0  0  0  0  0  0  0  0  0  0  0
    3.7601   -2.8894    0.0000 H   0  0  0  0  0  0  0  0  0  0  0  0
  1  3  1  0  0  0  0
  1  6  1  0  0  0  0
  2  3  2  0  0  0  0
  2  5  1  0  0  0  0
  4  5  1  0  0  0  0
  4  7  2  0  0  0  0
  4  8  1  0  0  0  0
  5  6  2  0  0  0  0
  6  9  1  0  0  0  0
  7 10  1  0  0  0  0
  7 13  1  0  0  0  0
  8 11  2  0  0  0  0
  8 14  1  0  0  0  0
  9 15  1  0  0  0  0
  9 16  1  0  0  0  0
  9 17  1  0  0  0  0
 10 12  2  0  0  0  0
 10 18  1  0  0  0  0
 11 12  1  0  0  0  0
 11 19  1  0  0  0  0
 12 20  1  0  0  0  0
M  END
> <PUBCHEM_COMPOUND_CID>
338037

> <PUBCHEM_COMPOUND_CANONICALIZED>
1

> <PUBCHEM_CACTVS_COMPLEXITY>
146

> <PUBCHEM_CACTVS_HBOND_ACCEPTOR>
3

> <PUBCHEM_CACTVS_HBOND_DONOR>
0

> <PUBCHEM_CACTVS_ROTATABLE_BOND>
1

> <PUBCHEM_CACTVS_SUBSKEYS>
AAADccBzAABAAAAAAAAAAAAAAAAAAWAAAAAwAAAAAAAAAAABwAAAHAQIQAAADAiBXgAygZAAAACmAyRiQACCJBAgAAAYmDQgRJgIIKKAkRGAIABggAAIiAcQgIAOAAAAAAAAAAAAAAAAAAAAAAAAAAAAAA==

> <PUBCHEM_IUPAC_OPENEYE_NAME>
5-methyl-4-phenyl-thiadiazole

> <PUBCHEM_IUPAC_CAS_NAME>
5-methyl-4-phenylthiadiazole

> <PUBCHEM_IUPAC_NAME_MARKUP>
5-methyl-4-phenylthiadiazole

> <PUBCHEM_IUPAC_NAME>
5-methyl-4-phenylthiadiazole

> <PUBCHEM_IUPAC_SYSTEMATIC_NAME>
5-methyl-4-phenyl-1,2,3-thiadiazole

> <PUBCHEM_IUPAC_TRADITIONAL_NAME>
5-methyl-4-phenyl-thiadiazole

> <PUBCHEM_IUPAC_INCHI>
InChI=1S/C9H8N2S/c1-7-9(10-11-12-7)8-5-3-2-4-6-8/h2-6H,1H3

> <PUBCHEM_IUPAC_INCHIKEY>
JRIBFXXOLIOOTM-UHFFFAOYSA-N

> <PUBCHEM_XLOGP3_AA>
2.5

> <PUBCHEM_EXACT_MASS>
176.04081944

> <PUBCHEM_MOLECULAR_FORMULA>
C9H8N2S

> <PUBCHEM_MOLECULAR_WEIGHT>
176.24

> <PUBCHEM_OPENEYE_CAN_SMILES>
CC1=C(N=NS1)C2=CC=CC=C2

> <PUBCHEM_OPENEYE_ISO_SMILES>
CC1=C(N=NS1)C2=CC=CC=C2

> <PUBCHEM_CACTVS_TPSA>
54

> <PUBCHEM_MONOISOTOPIC_WEIGHT>
176.04081944

> <PUBCHEM_TOTAL_CHARGE>
0

> <PUBCHEM_HEAVY_ATOM_COUNT>
12

> <PUBCHEM_ATOM_DEF_STEREO_COUNT>
0

> <PUBCHEM_ATOM_UDEF_STEREO_COUNT>
0

> <PUBCHEM_BOND_DEF_STEREO_COUNT>
0

> <PUBCHEM_BOND_UDEF_STEREO_COUNT>
0

> <PUBCHEM_ISOTOPIC_ATOM_COUNT>
0

> <PUBCHEM_COMPONENT_COUNT>
1

> <PUBCHEM_CACTVS_TAUTO_COUNT>
-1

> <PUBCHEM_COORDINATE_TYPE>
1
5
255

> <PUBCHEM_BONDANNOTATIONS>
1  3  8
1  6  8
10  12  8
11  12  8
2  3  8
2  5  8
4  7  8
4  8  8
5  6  8
7  10  8
8  11  8

$$$$
5354004
  -OEChem-09182107372D

 42 43  0     0  0  0  0  0  0999 V2000
    2.8660   -1.0000    0.0000 O   0  0  0  0  0  0  0  0  0  0  0  0
    7.1962    3.5000    0.0000 O   0  0  0  0  0  0  0  0  0  0  0  0
    3.7320    3.5000    0.0000 O   0  0  0  0  0  0  0  0  0  0  0  0
    4.5981   -4.0000    0.0000 O   0  0  0  0  0  0  0  0  0  0  0  0
    4.5981   -1.0000    0.0000 C   0  0  0  0  0  0  0  0  0  0  0  0
    5.4641    1.5000    0.0000 C   0  0  0  0  0  0  0  0  0  0  0  0
    3.7320   -1.5000    0.0000 C   0  0  0  0  0  0  0  0  0  0  0  0
    4.5981    0.0000    0.0000 C   0  0  0  0  0  0  0  0  0  0  0  0
    5.4641    0.5000    0.0000 C   0  0  0  0  0  0  0  0  0  0  0  0
    4.5981    2.0000    0.0000 C   0  0  0  0  0  0  0  0  0  0  0  0
    6.3301    2.0000    0.0000 C   0  0  0  0  0  0  0  0  0  0  0  0
    5.4641   -1.5000    0.0000 C   0  0  0  0  0  0  0  0  0  0  0  0
    6.3301    3.0000    0.0000 C   0  0  0  0  0  0  0  0  0  0  0  0
    4.5981    3.0000    0.0000 C   0  0  0  0  0  0  0  0  0  0  0  0
    3.7320   -2.5000    0.0000 C   0  0  0  0  0  0  0  0  0  0  0  0
    4.5981   -3.0000    0.0000 C   0  0  0  0  0  0  0  0  0  0  0  0
    5.4641    3.5000    0.0000 C   0  0  0  0  0  0  0  0  0  0  0  0
    5.4641   -2.5000    0.0000 C   0  0  0  0  0  0  0  0  0  0  0  0
    2.0000   -1.5000    0.0000 C   0  0  0  0  0  0  0  0  0  0  0  0
    7.1962    4.5000    0.0000 C   0  0  0  0  0  0  0  0  0  0  0  0
    3.7320    4.5000    0.0000 C   0  0  0  0  0  0  0  0  0  0  0  0
    5.4641   -4.5000    0.0000 C   0  0  0  0  0  0  0  0  0  0  0  0
    4.0611    0.3100    0.0000 H   0  0  0  0  0  0  0  0  0  0  0  0
    6.0010    0.1900    0.0000 H   0  0  0  0  0  0  0  0  0  0  0  0
    4.0611    1.6900    0.0000 H   0  0  0  0  0  0  0  0  0  0  0  0
    6.8671    1.6900    0.0000 H   0  0  0  0  0  0  0  0  0  0  0  0
    6.0010   -1.1900    0.0000 H   0  0  0  0  0  0  0  0  0  0  0  0
    3.1951   -2.8100    0.0000 H   0  0  0  0  0  0  0  0  0  0  0  0
    5.4641    4.1200    0.0000 H   0  0  0  0  0  0  0  0  0  0  0  0
    6.0010   -2.8100    0.0000 H   0  0  0  0  0  0  0  0  0  0  0  0
    1.6900   -0.9631    0.0000 H   0  0  0  0  0  0  0  0  0  0  0  0
    1.4631   -1.8100    0.0000 H   0  0  0  0  0  0  0  0  0  0  0  0
    2.3100   -2.0369    0.0000 H   0  0  0  0  0  0  0  0  0  0  0  0
    7.8162    4.5000    0.0000 H   0  0  0  0  0  0  0  0  0  0  0  0
    7.1962    5.1200    0.0000 H   0  0  0  0  0  0  0  0  0  0  0  0
    6.5762    4.5000    0.0000 H   0  0  0  0  0  0  0  0  0  0  0  0
    4.3520    4.5000    0.0000 H   0  0  0  0  0  0  0  0  0  0  0  0
    3.7320    5.1200    0.0000 H   0  0  0  0  0  0  0  0  0  0  0  0
    3.1120    4.5000    0.0000 H   0  0  0  0  0  0  0  0  0  0  0  0
    5.1541   -5.0369    0.0000 H   0  0  0  0  0  0  0  0  0  0  0  0
    6.0010   -4.8100    0.0000 H   0  0  0  0  0  0  0  0  0  0  0  0
    5.7741   -3.9631    0.0000 H   0  0  0  0  0  0  0  0  0  0  0  0
  1  7  1  0  0  0  0
  1 19  1  0  0  0  0
  2 13  1  0  0  0  0
  2 20  1  0  0  0  0
  3 14  1  0  0  0  0
  3 21  1  0  0  0  0
  4 16  1  0  0  0  0
  4 22  1  0  0  0  0
  5  7  2  0  0  0  0
  5  8  1  0  0  0  0
  5 12  1  0  0  0  0
  6  9  1  0  0  0  0
  6 10  2  0  0  0  0
  6 11  1  0  0  0  0
  7 15  1  0  0  0  0
  8  9  2  0  0  0  0
  8 23  1  0  0  0  0
  9 24  1  0  0  0  0
 10 14  1  0  0  0  0
 10 25  1  0  0  0  0
 11 13  2  0  0  0  0
 11 26  1  0  0  0  0
 12 18  2  0  0  0  0
 12 27  1  0  0  0  0
 13 17  1  0  0  0  0
 14 17  2  0  0  0  0
 15 16  2  0  0  0  0
 15 28  1  0  0  0  0
 16 18  1  0  0  0  0
 17 29  1  0  0  0  0
 18 30  1  0  0  0  0
 19 31  1  0  0  0  0
 19 32  1  0  0  0  0
 19 33  1  0  0  0  0
 20 34  1  0  0  0  0
 20 35  1  0  0  0  0
 20 36  1  0  0  0  0
 21 37  1  0  0  0  0
 21 38  1  0  0  0  0
 21 39  1  0  0  0  0
 22 40  1  0  0  0  0
 22 41  1  0  0  0  0
 22 42  1  0  0  0  0
M  END
> <PUBCHEM_COMPOUND_CID>
5354004

> <PUBCHEM_COMPOUND_CANONICALIZED>
1

> <PUBCHEM_CACTVS_COMPLEXITY>
332

> <PUBCHEM_CACTVS_HBOND_ACCEPTOR>
4

> <PUBCHEM_CACTVS_HBOND_DONOR>
0

> <PUBCHEM_CACTVS_ROTATABLE_BOND>
6

> <PUBCHEM_CACTVS_SUBSKEYS>
AAADceB4OAAAAAAAAAAAAAAAAAAAAAAAAAAwYAAAAAAAAAABQAAAGgAAAAAADASAmAIyBoAABACAAiBCAAACCAAgIAAIiAAGCIgMJyKEMRqAMCAlwBUIqAeA4DwOIAABCAAIAABAAAIQABAAAAAAAAAAAA==

> <PUBCHEM_IUPAC_OPENEYE_NAME>
1-[(E)-2-(2,4-dimethoxyphenyl)vinyl]-3,5-dimethoxy-benzene

> <PUBCHEM_IUPAC_CAS_NAME>
1-[(E)-2-(2,4-dimethoxyphenyl)ethenyl]-3,5-dimethoxybenzene

> <PUBCHEM_IUPAC_NAME_MARKUP>
1-[(<I>E</I>)-2-(2,4-dimethoxyphenyl)ethenyl]-3,5-dimethoxybenzene

> <PUBCHEM_IUPAC_NAME>
1-[(E)-2-(2,4-dimethoxyphenyl)ethenyl]-3,5-dimethoxybenzene

> <PUBCHEM_IUPAC_SYSTEMATIC_NAME>
1-[(E)-2-(2,4-dimethoxyphenyl)ethenyl]-3,5-dimethoxy-benzene

> <PUBCHEM_IUPAC_TRADITIONAL_NAME>
1-[(E)-2-(2,4-dimethoxyphenyl)vinyl]-3,5-dimethoxy-benzene

> <PUBCHEM_IUPAC_INCHI>
InChI=1S/C18H20O4/c1-19-15-8-7-14(18(12-15)22-4)6-5-13-9-16(20-2)11-17(10-13)21-3/h5-12H,1-4H3/b6-5+

> <PUBCHEM_IUPAC_INCHIKEY>
JDBCWSHYEQUBLW-AATRIKPKSA-N

> <PUBCHEM_XLOGP3_AA>
4.1

> <PUBCHEM_EXACT_MASS>
300.13615911

> <PUBCHEM_MOLECULAR_FORMULA>
C18H20O4

> <PUBCHEM_MOLECULAR_WEIGHT>
300.3

> <PUBCHEM_OPENEYE_CAN_SMILES>
COC1=CC(=C(C=C1)C=CC2=CC(=CC(=C2)OC)OC)OC

> <PUBCHEM_OPENEYE_ISO_SMILES>
COC1=CC(=C(C=C1)/C=C/C2=CC(=CC(=C2)OC)OC)OC

> <PUBCHEM_CACTVS_TPSA>
36.9

> <PUBCHEM_MONOISOTOPIC_WEIGHT>
300.13615911

> <PUBCHEM_TOTAL_CHARGE>
0

> <PUBCHEM_HEAVY_ATOM_COUNT>
22

> <PUBCHEM_ATOM_DEF_STEREO_COUNT>
0

> <PUBCHEM_ATOM_UDEF_STEREO_COUNT>
0

> <PUBCHEM_BOND_DEF_STEREO_COUNT>
1

> <PUBCHEM_BOND_UDEF_STEREO_COUNT>
0

> <PUBCHEM_ISOTOPIC_ATOM_COUNT>
0

> <PUBCHEM_COMPONENT_COUNT>
1

> <PUBCHEM_CACTVS_TAUTO_COUNT>
-1

> <PUBCHEM_COORDINATE_TYPE>
1
5
255

> <PUBCHEM_BONDANNOTATIONS>
10  14  8
11  13  8
12  18  8
13  17  8
14  17  8
15  16  8
16  18  8
5  12  8
5  7  8
6  10  8
6  11  8
7  15  8

$$$$
